<?xml version="1.0" encoding="UTF-8"?>

<routes>
    <!-- <vType id="NDD" carFollowModel="IDMNEW" stepping="1" laneChangeModel="LCNEW" tau="0.2" accel="2.0" decel="4.0" length="5.0" minGap="2.0" maxSpeed="40.0" lcAccelLat="20000.0" actionStepLength="1.0"/>  -->
    <!-- <vType id="IDM" carFollowModel="IDM" stepping="1" laneChangeModel="SL2015" tau="1.0" accel="2.0" decel="4.0" length="5.0" minGap="2.0" maxSpeed="20.0" lcAccelLat="20000.0"/> -->
    <vType id="IDM" carFollowModel="IDM" stepping="1" laneChangeModel="SL2015" tau="0.2" accel="2.0" decel="4.0" length="5.0" minGap="2.0" maxSpeed="40.0" lcAccelLat="20000.0"/>
    <route edges="8643878#3 8643878#4 8643878#5 217381795#1 -113214547#2" id="route_0"/>
    <route edges="-8647171#2 8647171#2 8647171#3 8647749#4 8647749#5 -8644416#2 -8644416#1" id="route_1"/>
    <route edges="8645994#1 -8645994#2 591235996#0 591235996#1 8642174#0 8642174#1 570153675 426452562#0 426452562#2 8643843#0 8650477#0 8650477#1 8650477#2 8650477#3 633109348 633109347#0 633109347#1 633109347#2 633109347#3 633109347#4 8643878#2 8643878#3 8643878#4 8643878#5" id="route_2"/>
    <route edges="8649455#0 -8645994#2 591235996#0 591235996#1 8642174#0 8642174#1 570153675 426452562#0 426452562#2 8643843#0 8650477#0 8650477#1 8650477#2 8650477#3 633109348 -633109348" id="route_3"/>
    <route edges="29018127#0 -8643843#4 8647749#0 8647749#1 8647749#2 8647749#3 8647749#4 8647749#5 8647749#6 -113214547#5 -113214547#4 -113214547#3" id="route_4"/>
    <route edges="-8644084#7 8644084#7 -8642174#1 -8642174#0 296966997#0 296966997#1 591235996#0" id="route_5"/>
    <route edges="-113214547#14 -113214547#13 -113214547#12 -113214547#11 -113214547#10 -113214547#8 -113214547#6 -113214547#5 -113214547#4 -113214547#3 217381795#2 217381795#3 8647171#2 8647171#3 8647171#4 -633109348 8649874#0 8649874#1 8649874#2 8648398 -8644084#5" id="route_6"/>
    <route edges="8643878#5 217381795#1 217381795#2 -8644416#5 -8644416#4 -8644416#3 -8644416#2 8636670" id="route_7"/>
    <route edges="-8644084#7 8644084#7 -8642174#1 8640002#0 8640002#1 8640650" id="route_8"/>
    <route edges="8647261#3 -8647261#3 8640002#1 8640002#2 -113214547#12 -113214547#11" id="route_9"/>
    <route edges="8647261#2 -8647261#2 113215718 591235996#1 8642174#0 8642174#1 -8644084#7 -8644084#6 -8644084#5 -8644084#4 8644084#4" id="route_10"/>
    <route edges="113214547#13 -113214547#13 8640002#3 8643878#0 8643878#1 8643878#2 8643878#3 -8643878#3" id="route_11"/>
    <route edges="8650477#0 8650477#1 8650477#2 8650477#3 633109348 633109347#0 633109347#1 633109347#2 633109347#3 113214547#11" id="route_12"/>
    <route edges="-633109348 8649874#0 8649874#1 8646712 8644084#5 8644084#6 8644084#7 -8642174#1 -8642174#0" id="route_13"/>
    <route edges="8647749#4 8647749#5 8644416#3 8644416#4 8644416#5 217381795#3 217381795#4 217381795#5 217381795#6 -8643843#4 -8643843#3 -8643843#1 -426452562#3 -426452562#1 -426452558#1 -8642174#1 -8642174#0 8642174#0" id="route_14"/>
    <route edges="8647261#3 533525993 633109347#1 8644416#0 8644416#1" id="route_15"/>
    <route edges="8636670 -113214547#6 -113214547#5 -113214547#4 8650880" id="route_16"/>
    <route edges="113215718 591235996#1 8642174#0 8642174#1 570153675 426452562#0 426452562#2 8643843#0 8643843#2 8643843#4 8643843#7 8639942" id="route_17"/>
    <route edges="8647749#1 -8648471#0 8650477#2 8650477#3 8649874#0 8649874#1 8646712 8644084#5 8644084#6 8644084#7 570153675 426452562#0 8642195#0 8642195#2" id="route_18"/>
    <route edges="8647749#6 -113214547#5 -113214547#4 -113214547#3 -113214547#2 8640496" id="route_19"/>
    <route edges="8644416#1 8636670 -113214547#6" id="route_20"/>
    <route edges="-8644416#1 8644416#1 8644416#2 8644416#3 8644416#4 8644416#5 217381795#3 8647171#2 8647171#3 -8647171#3" id="route_21"/>
    <route edges="-426452562#3 426452562#2 8643843#0 8650477#0 8650477#1 8650477#2 8650477#3 633109348 633109347#0 633109347#1 8644416#0 8644416#1 8644416#2 8644416#3 -8644416#3" id="route_22"/>
    <route edges="-8640496 113214547#2 217381795#2 217381795#3 -8647171#1" id="route_23"/>
    <route edges="8643878#3 8651778 -113214547#6 -113214547#5 -113214547#4 -113214547#3 113214547#3" id="route_24"/>
    <route edges="113214547#8 8650289 8644416#1 8644416#2 8644416#3 8644416#4 8644416#5 217381795#3 8647171#2 8647171#3 8647171#4 -633109348 8649874#0 8649874#1 8646712 8644084#5 8644084#6 8644084#7 -8644084#7" id="route_25"/>
    <route edges="-8647171#1 8647171#1 8647171#2 8647171#3 8647171#4 -633109348 8649874#0 8649874#1 8649874#2 8649874#3 8649874#4" id="route_26"/>
    <route edges="8643878#5 217381795#1 217381795#2 217381795#3 217381795#4 217381795#5 217381795#6 -8643843#4 -8643843#3 -8643843#1 -426452562#3 -426452562#1 -426452558#1 -8642174#1 8642174#1" id="route_27"/>
    <route edges="-8643878#3 8643878#3 8651778 113214547#8 8650289 8644416#1" id="route_28"/>
    <route edges="-8643878#2 8643878#2 8643878#3 8651778 -113214547#6 113214547#6" id="route_29"/>
    <route edges="8651778 -113214547#6 -113214547#5 -113214547#4 -113214547#3 217381795#2 217381795#3 217381795#4 217381795#5 217381795#6 8643843#7" id="route_30"/>
    <route edges="8640002#2 -113214547#12 -113214547#11 -113214547#10 -113214547#8 -113214547#6 -113214547#5 -113214547#4 -113214547#3 217381795#2 217381795#3 217381795#4 217381795#5 8644084#1" id="route_31"/>
    <route edges="8647749#3 -8647171#3 -8647171#2 -8647171#1 8647171#1" id="route_32"/>
    <route edges="-8644416#1 8644416#1 8644416#2 8647749#6 -113214547#5 -113214547#4 -113214547#3" id="route_33"/>
    <route edges="-926133692#1 -8643843#8 -8643843#4 -8643843#3 -8643843#1 -426452562#3 -426452562#1 -426452558#1 8647026#0 -8647026#0" id="route_34"/>
    <route edges="-8644084#6 -8644084#5 -8644084#4 -8644084#3 8650477#1 8650477#2 8650477#3 633109348 633109347#0 633109347#1 633109347#2 633109347#3 -113214547#10 8650106" id="route_35"/>
    <route edges="8648398 8644084#6 8644084#7 -8642174#1 8640002#0 8647261#3 -8647261#3" id="route_36"/>
    <route edges="8644084#0 8644084#1 8647749#1 8647749#2 8647749#3 8647749#4 8647749#5 8647749#6 8647749#7 8643878#5 217381795#1" id="route_37"/>
    <route edges="8649697 -113214547#4 -113214547#3 217381795#2 217381795#3 217381795#4 217381795#5 217381795#6 -8643843#4 -8643843#3 -8643843#1 -426452562#3 426452562#2" id="route_38"/>
    <route edges="-8647026#0 570153675 426452562#0 426452562#2 8643843#0 8650477#0 8650477#1 8650477#2 8650477#3 633109348 633109347#0 633109347#1 8644416#0 8644416#1 8644416#2 8644416#3 8644416#4 8644416#5 -8644416#5" id="route_39"/>
    <route edges="8640002#3 8643878#0 8643878#1 8643878#2 8643878#3 8643878#4 8643878#5 217381795#1 217381795#2 217381795#3 -8647171#1 -8646992" id="route_40"/>
    <route edges="8642174#1 -8642174#1 -8642174#0 -638337981 8649455#2" id="route_41"/>
    <route edges="217381795#3 8647171#2 8647171#3 8647749#4 8647749#5 -8644416#2 -8644416#1 -8644416#0" id="route_42"/>
    <route edges="8652080 8647749#3 8647171#4 -633109348 8649874#0 8649874#1 8646712 8644084#5 8644084#6 8644084#7 -8642174#1 -8642174#0 296966997#0 591235996#1" id="route_43"/>
    <route edges="-633109348 633109348 633109347#0 633109347#1 633109347#2 633109347#3 -113214547#10 -113214547#8 -113214547#6" id="route_44"/>
    <route edges="-8640523 -8647171#2 217381795#4 217381795#5 217381795#6 -8643843#4 -8643843#3 8643843#2" id="route_45"/>
    <route edges="8647261#0 533608798#1 591235996#0 591235996#1 8642174#0 8642174#1 570153675 426452562#0 426452562#2 8643843#0 8650477#0 8650477#1 8648471#0 8648471#1 217381795#5" id="route_46"/>
    <route edges="-28640407#1 426452562#0 426452562#2 8643843#0 8650477#0 8650477#1 8650477#2 8650477#3 633109348 633109347#0 633109347#1 633109347#2 633109347#3 -113214547#10 -113214547#8 -113214547#6 113214547#6" id="route_47"/>
    <route edges="8652080 8647749#3 8647171#4 633109347#0 633109347#1 633109347#2 633109347#3" id="route_48"/>
    <route edges="8650477#2 8650477#3 633109348 633109347#0 633109347#1 8644416#0 8644416#1 8644416#2 8647749#6" id="route_49"/>
    <route edges="-113214547#12 -113214547#11 -113214547#10 8650289 -8644416#0 8644416#0" id="route_50"/>
    <route edges="8644084#5 -8644084#5 -8644084#4 -8644084#3 8650477#1 8650477#2 8650477#3 633109348 633109347#0 633109347#1 633109347#2 633109347#3 633109347#4" id="route_51"/>
    <route edges="-8647171#1 8647171#1 217381795#4 217381795#5 217381795#6 8643843#7" id="route_52"/>
    <route edges="-8642174#0 296966997#0" id="route_53"/>
    <route edges="8648398 -8644084#5 -8644084#4 -8644084#3 8650477#1 8650477#2 8650477#3 633109348 -8647171#4 -8647171#3 -8647171#2 -8647171#1 -8646992" id="route_54"/>
    <route edges="591235996#1 8642174#0 8642174#1 570153675 426452562#0 426452562#2 8643843#0 8650477#0 -8644084#2 -8644084#1" id="route_55"/>
    <route edges="8649697 -113214547#4 -113214547#3 217381795#2 217381795#3 8647171#2 8647171#3 8647171#4 -633109348 8649874#0 8648377" id="route_56"/>
    <route edges="-8647261#3 -8647261#2 113215718 591235996#1 8642174#0 8642174#1 570153675 426452562#0 426452562#2 8643843#0 8643843#2 8643843#4 8643843#7" id="route_57"/>
    <route edges="8643843#7 -8643843#8 -8643843#4 -8643843#3 8650477#0 8650477#1 8650477#2 8650477#3 633109348 633109347#0 633109347#1 633109347#2 633109347#3 633109347#4 8643878#2 -8643878#2" id="route_58"/>
    <route edges="8647026#0 -8647026#0 570153675 426452562#0 426452562#2 8643843#0 8650477#0 8650477#1 8650477#2 8650477#3 633109348" id="route_59"/>
    <route edges="8647171#2 8647171#3 8647171#4 633109347#0 633109347#1 633109347#2 633109347#3" id="route_60"/>
    <route edges="-113214547#10 -113214547#8 -113214547#6 -113214547#5 -113214547#4 -113214547#3 217381795#2 217381795#3 217381795#4 -8648471#1 -8648471#0" id="route_61"/>
    <route edges="-113214547#13 -113214547#12 -113214547#11 -113214547#10 -113214547#8 -113214547#6 -113214547#5 -113214547#4 -113214547#3 217381795#2 217381795#3 8647171#2 8647171#3 8647171#4 -633109348 8649874#0 8649874#1 8649874#2 8649874#3" id="route_62"/>
    <route edges="8648471#0 8648471#1 217381795#5 8644084#1 8647749#1" id="route_63"/>
    <route edges="-8648471#0 8650477#2 8650477#3 8649874#0 8649874#1 8646712 8644084#5 8644084#6 8644084#7 8647026#0 8649455#3 -28640407#1" id="route_64"/>
    <route edges="8648398 -8644084#5 -8644084#4 -8644084#3 8650477#1 8650477#2 8650477#3 633109348 633109347#0 633109347#1 633109347#2 633109347#3 -113214547#10 8650289" id="route_65"/>
    <route edges="-435486112 8643878#1 8643878#2 8643878#3 8643878#4 8643878#5 217381795#1 217381795#2 217381795#3 8647171#2 8647171#3 8647171#4 -633109348 8649874#0 8649874#1 8649874#2 8649874#3 8649874#4 533525993" id="route_66"/>
    <route edges="-426452558#1 -8642174#1 -8642174#0 296966997#0 296966997#1 8645994#1" id="route_67"/>
    <route edges="8647026#0 -8647026#0 570153675 426452562#0 426452562#2 8643843#0 8643843#2 8643843#4 -8643843#4" id="route_68"/>
    <route edges="533608798#0 533608798#1 591235996#0 591235996#1 8642174#0 8642174#1 570153675 426452562#0 426452562#2 8643843#0 8643843#2 8643843#4 8643843#7 8639942" id="route_69"/>
    <route edges="-8647026#0 570153675 426452562#0 426452562#2 8643843#0 8650477#0 8650477#1 8650477#2 8650477#3 8649874#0 8648377" id="route_70"/>
    <route edges="29018127#0 -8643843#4 -8643843#3 -8643843#1 -426452562#3 -426452562#1 -426452558#1 -8644084#7" id="route_71"/>
    <route edges="8636670 113214547#8 8650289 8644416#1" id="route_72"/>
    <route edges="-8644084#4 8644084#4 8644084#5 8644084#6 8644084#7 -8642174#1 8640002#0 -8647261#2" id="route_73"/>
    <route edges="8652080 8647749#3 8647171#4 633109347#0 633109347#1 633109347#2 633109347#3 633109347#4 -8643878#1 -8643878#0 8643878#0" id="route_74"/>
    <route edges="426452562#0 426452562#2 8643843#0 8650477#0 8650477#1 8650477#2 8650477#3 633109348 633109347#0 633109347#1" id="route_75"/>
    <route edges="-8642174#1 8642174#1 570153675 426452562#0 426452562#2 8643843#0 8650477#0 8650477#1 8650477#2 8650477#3 633109348 633109347#0 633109347#1 8644416#0 8644416#1 -8644416#1" id="route_76"/>
    <route edges="113214547#13 -113214547#13 -113214547#12 -113214547#11 -113214547#10 -113214547#8 -113214547#6 -113214547#5 -113214547#4 -113214547#3 217381795#2 217381795#3 8647171#2 8647171#3 8647171#4 -633109348 8649874#0 8649874#1 8649874#2 8649874#3 8649874#4 -8647261#3 8640002#1 8640650" id="route_77"/>
    <route edges="-8644416#1" id="route_78"/>
    <route edges="-426452558#1 570153675 426452562#0 426452562#2 8643843#0 8643843#2" id="route_79"/>
    <route edges="-8644416#1 8644416#1 8644416#2 8644416#3 8644416#4 8644416#5 217381795#3 217381795#4 217381795#5 217381795#6 -8643843#4 -8643843#3 -8643843#1 -426452562#3 -426452562#1 -426452558#1 8647026#0 8649455#3" id="route_80"/>
    <route edges="8647749#6 -113214547#5 -113214547#4 -113214547#3 217381795#2 217381795#3 217381795#4 217381795#5 217381795#6 -8643843#4 -8643843#3 -8643843#1 -426452562#3 -426452562#1" id="route_81"/>
    <route edges="-8644416#3 8647749#6 8647749#7 -8643878#4 -8643878#3 8643878#3" id="route_82"/>
    <route edges="-8644084#6 8644084#6 8644084#7 570153675 426452562#0 426452562#2 8643843#0 8643843#2 8643843#4 8643843#7 -8643843#8" id="route_83"/>
    <route edges="8649874#3 8649874#4 -8647261#3 8640002#1 8640002#2" id="route_84"/>
    <route edges="533525993 633109347#1 8644416#0 8644416#1 8644416#2 8644416#3 8644416#4 8644416#5 217381795#3 8647171#2" id="route_85"/>
    <route edges="8647261#3 -8647261#3 -8647261#2 113215718 591235996#1 8642174#0 8642174#1 -8644084#7 -8644084#6 -8644084#5 -8644084#4 -8644084#3" id="route_86"/>
    <route edges="-638337981 8647572#1 8642174#0 8642174#1 570153675 28640407#0" id="route_87"/>
    <route edges="29018127#0 -8643843#4 435330256#0" id="route_88"/>
    <route edges="8644416#5 -8644416#5 -8644416#4 -8644416#3 8647749#6 8647749#7 -8643878#4 8643878#4" id="route_89"/>
    <route edges="8651204 -8642195#2 -8642195#1 -426452562#1 -426452558#1 -8642174#1 -8642174#0" id="route_90"/>
    <route edges="217381795#3 8647171#2 8647171#3 8647171#4 633109347#0 633109347#1 633109347#2 633109347#3 113214547#11" id="route_91"/>
    <route edges="8647749#6 -113214547#5 -113214547#4 -113214547#3 217381795#2 217381795#3 217381795#4 217381795#5 217381795#6 -8643843#4 -8643843#3 -8643843#1 -426452562#3 -426452562#1 -426452558#1 -8642174#1 -8642174#0 296966997#0 296966997#1 8645994#1 -8645994#2" id="route_92"/>
    <route edges="-8644084#2 8644084#2 8644084#3 8644084#4 8644084#5 8644084#6 8644084#7 -8642174#1 -8642174#0 296966997#0 296966997#1 296966997#3" id="route_93"/>
    <route edges="29018127#0 -8643843#4 8647749#0 8647749#1 8647749#2 8647749#3 -8647171#3 -8647171#2 -8647171#1" id="route_94"/>
    <route edges="-8644416#5 8644416#5 217381795#3 8647171#2 8647171#3 8647171#4 -633109348 8649874#0 8649874#1 8649874#2" id="route_95"/>
    <route edges="426452562#2 8643843#0 8650477#0 8650477#1 8650477#2 8650477#3 633109348 633109347#0 633109347#1 8644416#0 8644416#1 8644416#2 8647749#6" id="route_96"/>
    <route edges="8640002#1 8640002#2 -113214547#12 -113214547#11 -113214547#10 -113214547#8" id="route_97"/>
    <route edges="8652080 8647749#3 -8647171#3 -8647171#2 217381795#4 -8648471#1 8647749#2" id="route_98"/>
    <route edges="8650477#2 8650477#3 8649874#0 8649874#1 8649874#2" id="route_99"/>
    <route edges="8647749#4 8647749#5 8647749#6 8647749#7 8643878#5 -8643878#5" id="route_100"/>
    <route edges="533608798#1 591235996#0 591235996#1 8642174#0 8642174#1 -8644084#7" id="route_101"/>
    <route edges="217381795#3 217381795#4 217381795#5 217381795#6 -8643843#4 -8643843#3 -8643843#1 -426452562#3 -426452562#1 28640407#0 -28640407#1" id="route_102"/>
    <route edges="113215718 591235996#1 8642174#0 8642174#1 570153675 426452562#0 426452562#2 8643843#0 8650477#0 8650477#1 8650477#2 8650477#3 633109348 633109347#0 633109347#1 633109347#2 633109347#3 633109347#4 8643878#2 8643878#3 8651778" id="route_103"/>
    <route edges="-8647171#1 8647171#1 8647171#2" id="route_104"/>
    <route edges="8650477#0 -8644084#2 -8644084#1 217381795#6 8643843#7 926133692#0" id="route_105"/>
    <route edges="8640002#2 -113214547#12 -113214547#11 -113214547#10 -113214547#8 -113214547#6 -113214547#5 -113214547#4 -113214547#3 217381795#2 217381795#3 8647171#2 8647171#3 8647171#4 -633109348 8649874#0 8649874#1 8646712 8644084#5 8644084#6 8644084#7" id="route_106"/>
    <route edges="-8643878#1 8643878#1 8643878#2 8643878#3 8643878#4 8643878#5 217381795#1 217381795#2 217381795#3 8647171#2 8647171#3 8647171#4 -633109348 8649874#0 8649874#1 8649874#2 8649874#3 8649874#4 -8647261#3 -8647261#2 -8647261#1 -8647261#0" id="route_107"/>
    <route edges="8650477#2 8650477#3 633109348 633109347#0 633109347#1 633109347#2 633109347#3 -113214547#10 -113214547#8 -113214547#6 -113214547#5 -113214547#4 -113214547#3 -113214547#2 8640496" id="route_108"/>
    <route edges="8640002#0 8647261#3 533525993 633109347#1 8644416#0 8644416#1 8644416#2 8644416#3 8644416#4 8644416#5" id="route_109"/>
    <route edges="-113214547#8 -113214547#6 -113214547#5 -113214547#4 -113214547#3 217381795#2 217381795#3 8647171#2 8640523" id="route_110"/>
    <route edges="633109347#0 633109347#1 8644416#0 8644416#1 8644416#2 8644416#3 8644416#4 8644416#5 217381795#3 8647171#2 8647171#3 8647749#4 8647749#5" id="route_111"/>
    <route edges="-8643878#1 8643878#1 8643878#2 8643878#3 8643878#4 8643878#5 217381795#1 217381795#2 217381795#3 217381795#4 217381795#5 8644084#1 8644084#2 8650477#1" id="route_112"/>
    <route edges="-426452562#3 426452562#2 8643843#0 8650477#0 -8644084#2" id="route_113"/>
    <route edges="8643843#0 8650477#0 8650477#1 8650477#2 8650477#3 633109348 633109347#0 633109347#1 633109347#2 633109347#3 633109347#4 8643878#2 8643878#3 8643878#4" id="route_114"/>
    <route edges="-8644416#2 8644416#2 8644416#3 8644416#4 8644416#5 217381795#3 217381795#4 217381795#5 217381795#6 -8643843#4 -8643843#3 -8643843#1" id="route_115"/>
    <route edges="8649455#0 -8645994#2 591235996#0 591235996#1 8642174#0 8642174#1 570153675 426452562#0 426452562#2 8643843#0 8650477#0 8650477#1 8650477#2 8650477#3 633109348 633109347#0 633109347#1 8644416#0 8644416#1 8644416#2 8644416#3 8644416#4 8644416#5 -8644416#5" id="route_116"/>
    <route edges="8643843#0 -8643843#1 -426452562#3 8642195#0 8642195#2" id="route_117"/>
    <route edges="217381795#6 -8643843#4 8647749#0 8647749#1 8647749#2 8647749#3 -8647171#3 8640523" id="route_118"/>
    <route edges="633109347#3 -113214547#10 -113214547#8 -113214547#6 -113214547#5 -113214547#4 -113214547#3 217381795#2 217381795#3 8647171#2 8647171#3 8647171#4 -633109348 8649874#0 8649874#1 8649874#2 8649874#3 8649874#4" id="route_119"/>
    <route edges="-8644084#4 8644084#4 8644084#5 8644084#6 8644084#7" id="route_120"/>
    <route edges="-8644416#3 8647749#6 8647749#7 8643878#5 217381795#1" id="route_121"/>
    <route edges="8644084#3 8644084#4 8644084#5 8644084#6 8644084#7 -8642174#1 8640002#0 -8647261#2 -8647261#1 -8647261#0" id="route_122"/>
    <route edges="-926133692#1 -8643843#8 -8643843#4 8647749#0 8647749#1 8647749#2 8647749#3 8647749#4 8647749#5 8644416#3 8644416#4 8644416#5" id="route_123"/>
    <route edges="-426452562#1 426452562#0 426452562#2" id="route_124"/>
    <route edges="8652080 8647749#3 -8647171#3 -8647171#2 217381795#4 217381795#5 217381795#6 8643843#7 926133692#0" id="route_125"/>
    <route edges="-426452562#1 -426452558#1 -8644084#7" id="route_126"/>
    <route edges="-8647171#1 8647171#1 8647171#2 8647171#3 8647171#4 -633109348 8649874#0 8649874#1 8649874#2 8649874#3" id="route_127"/>
    <route edges="8648471#0" id="route_128"/>
    <route edges="113214547#6 -113214547#6 8647749#7 -8643878#4 -8643878#3" id="route_129"/>
    <route edges="8647749#1 -8648471#0 8650477#2 8650477#3 8649874#0 8649874#1 8646712 8644084#5" id="route_130"/>
    <route edges="8643843#7 -8643843#8 -8643843#4 -8643843#3 8650477#0 8650477#1 8650477#2 8650477#3 633109348 633109347#0 633109347#1 633109347#2 633109347#3 633109347#4 8643878#2 8643878#3 8651778" id="route_131"/>
    <route edges="8644084#0 8644084#1 8644084#2 8650477#1 8650477#2 8650477#3 633109348 633109347#0 633109347#1 633109347#2 633109347#3 113214547#11 -113214547#11" id="route_132"/>
    <route edges="8647572#1 8642174#0 8640002#0 -8647261#2 -8647261#1 -8647261#0" id="route_133"/>
    <route edges="8644084#2 8650477#1 8650477#2 8650477#3 8649874#0 8649874#1 8649874#2 8649874#3 8649874#4" id="route_134"/>
    <route edges="-8643843#1" id="route_135"/>
    <route edges="-8640523 -8647171#2 217381795#4 217381795#5 217381795#6 8643843#7 8639942" id="route_136"/>
    <route edges="-8647171#2 217381795#4 217381795#5 217381795#6 -8643843#4 -8643843#3 -8643843#1 -426452562#3 -426452562#1 -426452558#1 -8642174#1 8642174#1" id="route_137"/>
    <route edges="8644416#3 8644416#4 8644416#5 217381795#3 8647171#2 8647171#3 8647171#4 -633109348 8649874#0 8649874#1 8646712 8644084#5 8644084#6 -8644084#6" id="route_138"/>
    <route edges="8643878#2 8643878#3 8643878#4 8643878#5 217381795#1 217381795#2 217381795#3 217381795#4 217381795#5 217381795#6 -8643843#4 -8643843#3 -8643843#1 -426452562#3 -426452562#1 -426452558#1 8647026#0 -8647026#0" id="route_139"/>
    <route edges="570153675 -426452558#1 8647026#0 8649455#3" id="route_140"/>
    <route edges="8647749#4 8647749#5 8644416#3 8644416#4 8644416#5 217381795#3 217381795#4 217381795#5 217381795#6 -8643843#4 -8643843#3 -8643843#1 -426452562#3 -426452562#1 -426452558#1 -8642174#1 -8642174#0 -638337981" id="route_141"/>
    <route edges="29018127#0 -8643843#4 8647749#0 8647749#1 8647749#2 8647749#3 -8647171#3 -8647171#2 -8647171#1" id="route_142"/>
    <route edges="-113214547#10 -113214547#8 -113214547#6 -113214547#5 -113214547#4 -113214547#3 217381795#2 217381795#3 217381795#4 217381795#5 217381795#6 -8643843#4 -8643843#3 -8643843#1 -426452562#3 -426452562#1 -426452558#1 8647026#0" id="route_143"/>
    <route edges="8643878#3 8643878#4 8643878#5 217381795#1 217381795#2 217381795#3 -8647171#1 -8646992" id="route_144"/>
    <route edges="8646062 633109347#3 -113214547#10 -113214547#8 -113214547#6 -113214547#5 -113214547#4 -113214547#3 217381795#2 217381795#3 217381795#4 217381795#5 217381795#6 8643843#7 8639942" id="route_145"/>
    <route edges="296966997#0 591235996#1 8642174#0 8640002#0 8640002#1 8640002#2 -113214547#12 -113214547#11" id="route_146"/>
    <route edges="-426452562#1 426452562#0 426452562#2 8643843#0 8650477#0 8650477#1 8648471#0" id="route_147"/>
    <route edges="8649455#2 -8647026#0 570153675 426452562#0 426452562#2 8643843#0 8650477#0 8650477#1 8650477#2 8650477#3 633109348 633109347#0 633109347#1 8644416#0 8644416#1 8636670" id="route_148"/>
    <route edges="8647749#2 8647749#3 -8647171#3 8640523" id="route_149"/>
    <route edges="-8643843#4" id="route_150"/>
    <route edges="-8648471#0 8650477#2 8650477#3 8649874#0 8649874#1 8646712 8644084#5 8644084#6 8644084#7 -8642174#1 -8642174#0 -638337981 8649455#2" id="route_151"/>
    <route edges="8647261#1 8647261#2 8647261#3 533525993 633109347#1 8644416#0 8644416#1 8644416#2 8647749#6" id="route_152"/>
    <route edges="8649455#1 8647572#1 8642174#0 8642174#1 -8644084#7" id="route_153"/>
    <route edges="-8644416#5 8644416#5 217381795#3 217381795#4 217381795#5 217381795#6 -8643843#4 -8643843#3 -8643843#1 -426452562#3 -426452562#1 -426452558#1 -8642174#1" id="route_154"/>
    <route edges="8647171#3 8647171#4 -633109348 8649874#0 8648377 -8644084#3 8650477#1 8648471#0" id="route_155"/>
    <route edges="217381795#4 217381795#5 217381795#6 -8643843#4 -8643843#3 -8643843#1 -426452562#3 8642195#0 8642195#2" id="route_156"/>
    <route edges="-8643843#8 -8643843#4 -8643843#3 8650477#0 8650477#1 8650477#2 8650477#3 8649874#0 8649874#1 8649874#2 8649874#3" id="route_157"/>
    <route edges="8647749#7 -8643878#4 8651778 -113214547#6 -113214547#5 -113214547#4 8650880" id="route_158"/>
    <route edges="8647261#3 -8647261#3 -8647261#2 113215718 591235996#1 8642174#0 8642174#1 570153675 426452562#0 426452562#2 8643843#0 8650477#0 8650477#1 8648471#0" id="route_159"/>
    <route edges="-113214547#14 -113214547#13 -113214547#12 -113214547#11 -113214547#10 8650289 8644416#1 8644416#2 8644416#3" id="route_160"/>
    <route edges="113214547#12 -113214547#12 -113214547#11 -113214547#10 -113214547#8 -113214547#6 -113214547#5 -113214547#4 -113214547#3 217381795#2 217381795#3 8647171#2 8647171#3 8647171#4 -633109348 8649874#0 8649874#1 8649874#2 8649874#3" id="route_161"/>
    <route edges="8647261#2 8640002#1 8640002#2 -113214547#12 -113214547#11 -113214547#10 -113214547#8 -113214547#6 8647749#7" id="route_162"/>
    <route edges="8647261#3 -8647261#3 -8647261#2 113215718 591235996#1 -638337981 8649455#2 -8647026#0" id="route_163"/>
    <route edges="8647171#4 -633109348 8649874#0 8649874#1 8646712 8644084#5 8644084#6 8644084#7 570153675 426452562#0 8642195#0 -8642195#1" id="route_164"/>
    <route edges="8648377 -8644084#3 8650477#1 8650477#2 8650477#3 633109348 633109347#0 633109347#1 8644416#0 8644416#1 8644416#2 8647749#6" id="route_165"/>
    <route edges="-8644416#0 8644416#0 8644416#1 8644416#2 8644416#3 8644416#4 8644416#5 217381795#3 217381795#4 217381795#5 217381795#6 -8643843#4 -8643843#3 -8643843#1 -426452562#3 -426452562#1 -426452558#1 -8642174#1 -8642174#0 -638337981 8647572#1" id="route_166"/>
    <route edges="8647261#0 533608798#1 591235996#0 591235996#1 8642174#0 8642174#1 570153675 426452562#0 426452562#2 8643843#0 8650477#0 8650477#1 8650477#2 8650477#3 633109348 633109347#0 633109347#1 8644416#0 8644416#1 8644416#2 -8644416#2" id="route_167"/>
    <route edges="-113214547#14 -113214547#13 -113214547#12 -113214547#11 -113214547#10 -113214547#8 -113214547#6 -113214547#5 -113214547#4 -113214547#3 217381795#2 217381795#3 8647171#2 8647171#3 8647171#4 -633109348 8649874#0 8649874#1 8646712 -8644084#4" id="route_168"/>
    <route edges="113214547#11 -113214547#11 -113214547#10 -113214547#8 -113214547#6 8647749#7" id="route_169"/>
    <route edges="8650477#2 8650477#3 633109348 -8647171#4 -8647171#3 -8647171#2 -8647171#1" id="route_170"/>
    <route edges="8643878#4 8643878#5 217381795#1" id="route_171"/>
    <route edges="8650880 -8644416#4 -8644416#3 -8644416#2 -8644416#1 -8644416#0 633109347#2 633109347#3 633109347#4" id="route_172"/>
    <route edges="8649874#4 -8647261#3 -8647261#2 113215718 591235996#1 8642174#0 8642174#1 570153675 426452562#0 8642195#0 8642195#2 -8642195#2" id="route_173"/>
    <route edges="8650477#2 8650477#3 8649874#0 8648377 -8644084#3 -8644084#2 -8644084#1" id="route_174"/>
    <route edges="8650477#1 8650477#2 8650477#3 8649874#0 8649874#1 8646712 8644084#5 8644084#6 8644084#7 8647026#0 -8647026#0" id="route_175"/>
    <route edges="-8640523 8647171#3 8647171#4 -633109348 8649874#0 8649874#1 8646712 8644084#5 8644084#6 8644084#7 -8642174#1 -8642174#0 296966997#0" id="route_176"/>
    <route edges="8644416#5 217381795#3 8647171#2 8647171#3 8647171#4 -633109348 8649874#0 8649874#1 8649874#2 8649874#3 8649874#4 -8647261#3" id="route_177"/>
    <route edges="8643843#4 -8643843#4 -8643843#3 8650477#0 8650477#1 8650477#2 8650477#3 633109348 633109347#0" id="route_178"/>
    <route edges="217381795#0 -8643878#5 -8643878#4 -8643878#3 -8643878#2 -8643878#1 435486112 113214547#12 8640002#3" id="route_179"/>
    <route edges="-8645994#2 591235996#0 591235996#1 8642174#0 8642174#1 -8644084#7 -8644084#6 -8644084#5 8644084#5" id="route_180"/>
    <route edges="-113214547#10 -113214547#8 -113214547#6 -113214547#5 -113214547#4 -113214547#3 217381795#2 217381795#3 8647171#2 8647171#3 8647171#4 -633109348 8649874#0 8649874#1 8649874#2" id="route_181"/>
    <route edges="8636670 -113214547#6 -113214547#5 -113214547#4 -113214547#3 217381795#2 217381795#3 8647171#2 8647171#3 8647171#4 -633109348 8649874#0 8649874#1 8646712 8644084#5 8644084#6 8644084#7" id="route_182"/>
    <route edges="8646062 633109347#3 633109347#4 8643878#2 8643878#3 8643878#4" id="route_183"/>
    <route edges="113214547#5 -113214547#5 -113214547#4 -113214547#3 217381795#2 217381795#3 217381795#4 217381795#5 217381795#6 -8643843#4 -8643843#3 -8643843#1 -426452562#3 -426452562#1" id="route_184"/>
    <route edges="8644084#2 8650477#1 8650477#2 8650477#3 633109348 633109347#0 633109347#1 633109347#2 633109347#3 -113214547#10 113214547#10" id="route_185"/>
    <route edges="-8648471#1 8647749#2 8647749#3 8647749#4" id="route_186"/>
    <route edges="8644416#4 8644416#5 217381795#3 8647171#2 8647171#3 8647171#4 -633109348 8649874#0 8649874#1 8649874#2 8649874#3 8649874#4 -8647261#3 -8647261#2 -8647261#1 -8647261#0" id="route_187"/>
    <route edges="-8648471#0 8650477#2 8650477#3 633109348 633109347#0 633109347#1 8644416#0 8644416#1 8644416#2 8644416#3 8644416#4 8644416#5 217381795#3" id="route_188"/>
    <route edges="217381795#3 8647171#2 8647171#3 8647171#4 -8647171#4" id="route_189"/>
    <route edges="-8642195#2 -8642195#1 426452562#2 8643843#0 8650477#0 8650477#1 8648471#0 8648471#1 217381795#5" id="route_190"/>
    <route edges="8649874#4 -8647261#3 8640002#1 8640002#2 8640002#3 8643878#0 8643878#1 8643878#2 8643878#3 8643878#4 8643878#5" id="route_191"/>
    <route edges="8649455#2 -8647026#0 570153675 426452562#0 8642195#0 8642195#2" id="route_192"/>
    <route edges="-8647261#3 8647261#3 533525993 633109347#1 8644416#0 8644416#1 8636670" id="route_193"/>
    <route edges="-113214547#10 -113214547#8 -113214547#6 -113214547#5 -113214547#4 -113214547#3 217381795#2 217381795#3 8647171#2 8647171#3 -8647171#3" id="route_194"/>
    <route edges="296966997#0 591235996#1 8642174#0 8642174#1 570153675 426452562#0 426452562#2 8643843#0 8650477#0 8650477#1 8650477#2 8650477#3 633109348 633109347#0 633109347#1 633109347#2 633109347#3 -113214547#10 -113214547#8 -113214547#6 -113214547#5 -113214547#4 -113214547#3 -113214547#2 8640496" id="route_195"/>
    <route edges="8644084#0 217381795#6 -8643843#4 435330256#0" id="route_196"/>