<?xml version="1.0" encoding="UTF-8"?>

<routes>
    <!-- <vType id="NDD" carFollowModel="IDMNEW" stepping="1" laneChangeModel="LCNEW" tau="0.2" accel="2.0" decel="4.0" length="5.0" minGap="2.0" maxSpeed="40.0" lcAccelLat="20000.0" actionStepLength="1.0"/>  -->
    <!-- <vType id="IDM" carFollowModel="IDM" stepping="1" laneChangeModel="SL2015" tau="1.0" accel="2.0" decel="4.0" length="5.0" minGap="2.0" maxSpeed="20.0" lcAccelLat="20000.0"/> -->
    <vType id="IDM" carFollowModel="IDM" stepping="1" laneChangeModel="SL2015" tau="0.2" accel="2.0" decel="4.0" length="5.0" minGap="2.0" maxSpeed="40.0" lcAccelLat="20000.0"/>
    <route edges="290276273 -290280037 114182715#1 -8652103#0 -1226231204#1 290281427#1 426498645#0 426498646 426498206 290281426#0 290281426#1 544506503 426497571#0 -1212692909 -1212692908#0 -426491387#2 -292807008#2 -292807008#1 -1089085520#1 -832439083#2 -85890998#1 -1121694527#1" color="yellow" id="route_0"/>
</routes>
