<?xml version="1.0" encoding="UTF-8"?>

<routes>
    <!-- <vType id="NDD" carFollowModel="IDMNEW" stepping="1" laneChangeModel="LCNEW" tau="0.2" accel="2.0" decel="4.0" length="5.0" minGap="2.0" maxSpeed="40.0" lcAccelLat="20000.0" actionStepLength="1.0"/>  -->
    <!-- <vType id="IDM" carFollowModel="IDM" stepping="1" laneChangeModel="SL2015" tau="1.0" accel="2.0" decel="4.0" length="5.0" minGap="2.0" maxSpeed="20.0" lcAccelLat="20000.0"/> -->
    <vType id="IDM" carFollowModel="IDM" stepping="1" laneChangeModel="SL2015" tau="0.2" accel="2.0" decel="4.0" length="5.0" minGap="2.0" maxSpeed="40.0" lcAccelLat="20000.0"/>
    <route edges="426659553#0 -947879228 633904936 292967031#0 292967031#1 993825359 1089085521 -1120509015" id="route_0"/>
    <route edges="-8646223#0 -292807008#1 292812690#0 292812690#1 -85891007#2" id="route_1"/>
    <route edges="591217318 51811528#0 426488940#0 426488940#2 427635744#0 85890979 426488942 85891007#0 290084391#0 518404079#0 518404079#2" id="route_2"/>
    <route edges="8641571#1 -8641571#2 426659559#0 -993825360#1 993825359 8638395#0 8638395#1 -292809744" id="route_3"/>
    <route edges="290276273 -290280037 114182715#1 -8652103#0 -1226231204#1 290281427#1 426498645#0 426498646 426498206 290281426#0 290281426#1 544506503 426497571#0 -1212692909 -1212692908#0 -426491387#2 -292807008#2 -292807008#1 -1089085520#1 -832439083#2 -85890998#1 -1121694527#1" id="route_4"/>
    <route edges="-85890998#1 8645381 822604874 1089085520#0 292807008#1 292807008#2 426491387#0 426497570#0 1212692908#1 426498010 426498009#0 544506505#0 544506505#1 541022697 236579256 627757427#0 290281424#0 290281424#1 -8638021 292967029#0 292967029#1" id="route_5"/>
    <route edges="-1120509015 -292812690#3 -292812690#0 292807008#1 292807008#2 426491387#0 -426497569#2 -591235970#2 -293227068#3 -85310729#1 -85310729#0" id="route_6"/>
    <route edges="426659557 533607551 426498204 290281426#0 290281426#1 544506503 426497571#0 -1212692909 -1212692908#0 -426491387#2 -292807008#2 -292807008#1 -1089085520#1 -832439083#2 -85890998#1 -1121694527#1 426488940#0 426488940#2" id="route_7"/>
    <route edges="-85890998#1 8645381 822604874 1089085520#0 292807008#1 292807008#2 426491387#0 426497570#0 1212692908#1 426498010" id="route_8"/>
    <route edges="734528310 518404079#0 8641571#1 8641571#3 -1212692909 -1212692908#0 -426491387#2 -292807008#2 -292807008#1 -1089085520#1" id="route_9"/>
    <route edges="734528310 518404079#0 518404079#2 426659553#0 426659557 533607551 426498204 541022699" id="route_10"/>
    <route edges="-94482795 -632602969 633904936 -633904936" id="route_11"/>
    <route edges="8652103#0 -8652103#0 -1226231204#1 290281427#1 426498645#0 426498646 426498206 541022699 426498643#0 485262838 306150212#0 426659554#0 426659559#0 -993825360#1" id="route_12"/>
    <route edges="-292812690#0 292812690#0 292812690#1 -292812690#3" id="route_13"/>
    <route edges="85310729#1 293227068#1 591235970#0 426497569#0 426497570#0 1212692908#1 426498010 426498009#0 544506505#0 544506505#1 541022697 236579256 426498646 426498206" id="route_14"/>
    <route edges="734528310 518404079#0 8641571#1 8641571#3 -1212692909 -1212692908#0 -426491387#2 -292807008#2 -292807008#1 -1089085520#1 -832439083#2 -85890998#1 -8647521#1 592009791" id="route_15"/>
    <route edges="295175439 8641654#0 1226231204#0 8652103#0 8652103#1 8650834#1 926764280#1" id="route_16"/>
    <route edges="114182715#0 114182715#1 -8652103#0 -1226231204#1 290281427#1 426498645#0 426498646 426498206 290281426#0 290281426#1 544506503 426497571#0 -1212692909 -1212692908#0 -426491387#2 -292807008#2 -292807008#1 -1089085520#1 -832439083#2 -85890998#1 -1121694527#1 426488940#0 8646770 426489162" id="route_17"/>
    <route edges="832439143 -633904936 633904939#0 426659557 533607551 426498204 541022697 236579256 426498646" id="route_18"/>
    <route edges="8638021 926995007 926764280#0 -8650834#1 -8650834#0 -8652103#0 -1226231204#1 290281427#1 426498645#0 426498646 426498206 290281426#0 290281426#1 544506503 426497571#0 -1212692909 -1212692908#0 426497570#0" id="route_19"/>
    <route edges="533607551 426498204 541022697 236579256 627757427#0 1226231204#0 8652103#0 -8652103#0 -1226231204#1" id="route_20"/>
    <route edges="-8638021 8641654#0 1226231204#0 8652103#0 8652103#1 8650834#1 -8650834#1" id="route_21"/>
    <route edges="-292809511#0 292809511#0 292809511#1 -8638395#0" id="route_22"/>
    <route edges="-292812690#3 -292812690#0 292807008#1 292807008#2 426491387#0 8641115 8647263 -8647263" id="route_23"/>
    <route edges="426498646 426498206 541022697 236579256 627757427#0 290281424#0 290281424#1 926995007 114182715#0" id="route_24"/>
    <route edges="1121696256#0 8645381 822604874 1089085520#0 292812690#0 292812690#1 -85891007#2 -1120503844 -85890979" id="route_25"/>
    <route edges="-8643657 85310729#1 293227068#1 591235970#0 426497569#0 426497570#0 1212692908#1 426498010 426498009#0 544506505#0 544506505#1 541022699 426498643#0 292809927 8648213#0" id="route_26"/>
    <route edges="426659554#0 518404079#2 426659553#0 426659557 533607551 426498204 541022699 426498643#0" id="route_27"/>
    <route edges="-712375229#0 712375229#0 712375229#1 -293227068#3 -293227068#0 187589433 592009791" id="route_28"/>
    <route edges="-678127463#1 678127463#1 -292967031#1 -292967031#0 -633904936 633904939#0 426659557 533607551 426498204 541022697 236579256 627757427#0 1226231204#0 8652103#0 8652103#1 114182722" id="route_29"/>
    <route edges="993825359 -993825359 -292967031#1 -292967031#0 -633904936 633904939#0 306150212#0 426659554#0 426659559#0" id="route_30"/>
    <route edges="426488940#2 427635744#0 85890979 426488942 85891007#0 292807009#0 -1089085521 -993825359 -292967031#1 -292967031#0 -633904936 633904939#0 426659557 533607551" id="route_31"/>
    <route edges="85310729#0 8643657 -712375229#0 712375229#0" id="route_32"/>
    <route edges="-8638021 8641654#0 290281427#1 426498645#0 426498646 426498206 290281426#0 290281426#1 544506503 426497571#0 -1212692909 -1212692908#0" id="route_33"/>
    <route edges="-8652103#0 -1226231204#1 290281427#1 426498645#0 426498646 426498206 290281426#0 290281426#1 544506503 426497571#0 -1212692909 8646460 -8646460" id="route_34"/>
    <route edges="-85890979 -427635744#1 427635744#0 85890979 426488942 85891007#0 -292812690#3 -292812690#0 292807008#1 292807008#2 426491387#0 426497570#0 1212692908#1 426498010 426498009#0 544506505#0 544506505#1 541022697 236579256 627757427#0 1226231204#0 8652103#0 8652103#1 8650834#1" id="route_35"/>
    <route edges="8640122 591217318 51811528#0 426491386#0 8645381 822604874 1089085520#0 292807008#1 292807008#2 426491387#0 426497570#0 1212692908#1 426498010 426498009#0 544506505#0 544506505#1 541022697 236579256 627757427#0 1226231204#0 8652103#0 8652103#1 8650834#1 -926764280#0 -926995007" id="route_36"/>
    <route edges="426659559#0 518404087 426659560#0 -292812690#3 -292812690#0 -1089085520#1 -832439083#2 -85890998#1 -8647521#1 592009791 822604876 822604873 187589433" id="route_37"/>
    <route edges="8645381 822604874 1089085520#0 292812690#0 292812690#1 292807009#0" id="route_38"/>
    <route edges="-8643657 85310729#1 293227068#1 591235970#0 426497569#0 426497570#0 1212692908#1 -8641571#4 -8641571#2" id="route_39"/>
    <route edges="426488940#2 427635744#0 85890979 426488942 85891007#0 -292812690#3 8651870 -8646223#0" id="route_40"/>
    <route edges="426497569#0 426497570#0 1212692908#1 426498010 426498009#0 544506505#0 544506505#1 541022697 236579256 627757427#0 290281424#0 290281424#1 -8638021 8642161" id="route_41"/>
    <route edges="1212692908#1 -1212692909 -1212692908#0 -426491387#2 -292807008#2 -292807008#1 292812690#0 292812690#1 -85891007#2" id="route_42"/>
    <route edges="993825360#0 -993825360#1 -292967031#1 -292967031#0 292967031#0" id="route_43"/>
    <route edges="-292809744 -798504564 -292808567 -292967031#0 -633904936 633904939#0 426659557 533607551 426498204 541022697 236579256 627757427#0 1226231204#0 8652103#0 -8652103#0 -1226231204#1" id="route_44"/>
    <route edges="-292967031#1 -292967031#0 -633904936 633904939#0 306150212#0 426659554#0" id="route_45"/>
    <route edges="678127463#1 -292967031#1 -292967031#0 -633904936 633904939#0 426659557 533607551 426498204 541022697 236579256 627757427#0 290281424#0" id="route_46"/>
    <route edges="-292807008#1 292807008#1 292807008#2 426491387#0 426497570#0 1212692908#1" id="route_47"/>
    <route edges="993825360#0 -993825360#1 -292967031#1 -292967031#0 -633904936 633904939#0 426659557 292809927 295175439" id="route_48"/>
    <route edges="926764280#0 -8650834#1 -8650834#0 -8652103#0 -1226231204#1 290281427#1 426498645#0 426498646 426498206 541022699 426498643#0 485262838 -947879228 633904936 292967031#0 292967031#1 993825359 8638395#0" id="route_49"/>
    <route edges="-1089085521 1089085521 -1120509015 -292812690#3 -292812690#0 -1089085520#1 -832439083#2 -85890998#1 -1121694527#1 426488940#0 8646770 426489162 591217318" id="route_50"/>
    <route edges="51811528#0 426488940#0" id="route_51"/>
    <route edges="-8643657 85310729#1 293227068#1 591235970#0 426497569#0 426497570#0 1212692908#1 -8641571#4 -8641571#2 426659559#0" id="route_52"/>
    <route edges="-292967031#1 -292967031#0 -633904936 633904939#0 426659557 533607551 426498204 290281426#0 290281426#1" id="route_53"/>
    <route edges="290281427#1 426498645#0 627757427#0 1226231204#0 8652103#0" id="route_54"/>
    <route edges="8640122 591217318 51811528#0 426491386#0 8645381 822604874 1089085520#0 292807008#1 8646223#0 -8646223#0" id="route_55"/>
    <route edges="292812690#0 -292812690#0 292807008#1 292807008#2 426491387#0 -426497569#2 -591235970#2 -712375229#3" id="route_56"/>
    <route edges="8643657 -8643657 -85310729#0 8640806" id="route_57"/>
    <route edges="-8650834#0 -8652103#0 -1226231204#1 290281427#1 426498645#0 426498646 426498206 541022699 426498643#0 485262838 306150212#0 426659554#0 426659559#0" id="route_58"/>
    <route edges="426498010 426498009#0 636069022#0 636069022#1 1131145222#0 -947879228 633904936 -94482795 -632602969" id="route_59"/>
    <route edges="633904936 292967031#0 292967031#1 993825359 1089085521 -1120509015 -292812690#3 -292812690#0 -1089085520#1 -832439083#2 -85890998#1 -1121694527#1 426488940#0" id="route_60"/>
    <route edges="636069022#1 1131145222#0 306150212#0" id="route_61"/>
    <route edges="-1065418333 -798504564 -292808567 -292967031#0 -633904936 633904939#0 -947879228" id="route_62"/>
    <route edges="-1120503844 -85890979 -427635744#1 427635744#0 85890979 426488942 85891007#0 -292812690#3 -292812690#0 -1089085520#1 -832439083#2 -85890998#1 -1121694527#1 426488940#0 8646770" id="route_63"/>
    <route edges="8640122 591217318 51811528#0 426491386#0 -8647521#1 592009791 822604876 822604873 990899889#0 -85310729#1 85310729#1" id="route_64"/>
    <route edges="-8650834#1 114182722 290280037 -290280037" id="route_65"/>
    <route edges="8640122 591217318 51811528#0 426491386#0 8645381 822604874 1089085520#0 292812690#0 8651870" id="route_66"/>
    <route edges="-292809511#1 678127463#1 -292967031#1 -292967031#0 -633904936 633904939#0 426659557 292809927" id="route_67"/>
    <route edges="-292807008#2 292807008#2 426491387#0 426497570#0 1212692908#1 426498010 426498009#0 636069022#0 636069022#1" id="route_68"/>
    <route edges="633904936 -633904936 633904939#0 426659557 533607551 426498204 290281426#0 290281426#1 544506503 426497571#0 -1212692909 -1212692908#0 -426497569#2" id="route_69"/>
    <route edges="292808567 -292808567 292967031#1 993825359 1089085521 -1120509015 -85891007#2 -1120503844 -85890979 -427635744#1 427635744#0 85890979 426488942" id="route_70"/>
    <route edges="-8643657 85310729#1 293227068#1 591235970#0 426497569#0 8641115" id="route_71"/>
    <route edges="290276273 -290280037 114182715#1 -8652103#0 -1226231204#1 290281427#1 426498645#0 426498646 426498206 290281426#0 290281426#1 544506503 426497571#0 -1212692909 -1212692908#0 -426491387#2 -292807008#2 -292807008#1 292812690#0 292812690#1 -85891007#2 -1120503844 -85890979" id="route_72"/>
    <route edges="295175439 8641654#0 290281427#1 426498645#0 426498646 426498206 290281426#0 290281426#1 544506503 426497571#0 -1212692909 -1212692908#0 -426491387#2 -292807008#2 -292807008#1 -1089085520#1 -832439083#2 -85890998#1 -8647521#1 592009791" id="route_73"/>
    <route edges="-85310729#0 8640806 712375229#0 712375229#1 591235970#0 426497569#0 426497570#0 1212692908#1 426498010 426498009#0 544506505#0 544506505#1 541022697 236579256 627757427#0 1226231204#0 8652103#0 8652103#1 8650834#1 -926764280#0 -926995007" id="route_74"/>
    <route edges="993825360#0 518404087 426659560#0 -85891007#2 -1120503844 -85890979 -427635744#1 427635744#0" id="route_75"/>
    <route edges="290281426#0 290281426#1 636069022#0 636069022#1 1131145222#0 -947879228 633904936 292967031#0 292967031#1" id="route_76"/>
    <route edges="-293227068#3 293227068#1 591235970#0 426497569#0 426497570#0 1212692908#1 426498010 426498009#0 544506505#0 544506505#1 541022697 236579256 627757427#0 290281424#0 290281424#1 -8638021" id="route_77"/>
    <route edges="-94482795 -632602969 633904939#0 426659557 533607551 426498204 290281426#0 290281426#1 544506503 426497571#0 426498010" id="route_78"/>
    <route edges="-8638021 8641654#0 290281427#1 426498645#0 426498646 426498206 290281426#0 290281426#1 544506503 426497571#0 -1212692909 -1212692908#0 -426491387#2 -292807008#2 -292807008#1 292812690#0 292812690#1 -85891007#2" id="route_79"/>
    <route edges="-292808567 -292967031#0 -633904936 633904939#0 426659557" id="route_80"/>
    <route edges="-8638021 8641654#0 290281427#1 426498645#0 426498646 426498206 290281426#0 290281426#1 544506503 426497571#0 -1212692909 -1212692908#0 -426491387#2 -292807008#2 -292807008#1 -1089085520#1 -832439083#2 -85890998#1 8645381" id="route_81"/>
    <route edges="8638021 926995007 926764280#0 -8650834#1 -8650834#0 -8652103#0 -1226231204#1 290281427#1 426498645#0 426498646 426498206 541022699 426498643#0 485262838 -947879228 633904936 292967031#0 292808567 -292808567" id="route_82"/>
    <route edges="-8638395#1 -8638395#0 1089085521 -1120509015 290084391#0 518404079#0" id="route_83"/>
    <route edges="-85890979 -427635744#1 427635744#0 85890979 426488942 85891007#0 -292812690#3 -292812690#0 292807008#1 292807008#2 426491387#0 -426497569#2" id="route_84"/>
    <route edges="8647263 -8646460 -1212692908#0 -426497569#2 -591235970#2 591235970#0 426497569#0" id="route_85"/>
    <route edges="292808567 -292808567 -292967031#0 -633904936 633904939#0 426659557 533607551 426498204 290281426#0 290281426#1 544506503 426497571#0 -1212692909 -1212692908#0 -426497569#2 -591235970#2 -712375229#3 712375229#1" id="route_86"/>
    <route edges="734528310 518404079#0 8641571#1 8641571#3 -1212692909 -1212692908#0 -426491387#2 -292807008#2 -292807008#1 -1089085520#1 -832439083#2" id="route_87"/>
    <route edges="-292812690#0 292807008#1 292807008#2 426491387#0 426497570#0 1212692908#1 426498010 426498009#0 544506505#0 544506505#1 290281426#0" id="route_88"/>
    <route edges="290276273 -290280037 114182715#1 -8652103#0 -1226231204#1 290281427#1 426498645#0 426498646 426498206 541022699 426498643#0 485262838 -947879228 633904936 292967031#0 292808567 292809511#0" id="route_89"/>
    <route edges="544506505#0 544506505#1 290281426#0 290281426#1 544506503 426497571#0 -1212692909 -1212692908#0 8641115 734528310 518404079#0" id="route_90"/>
    <route edges="990899889#0 293227068#1 591235970#0 426497569#0 -426491387#2 -292807008#2 -292807008#1 292812690#0 292812690#1 -292812690#3" id="route_91"/>
    <route edges="1226231204#0 8652103#0 -8652103#0 -1226231204#1 1086987623#1" id="route_92"/>
    <route edges="8638021 926995007 926764280#0 -8650834#1 -8650834#0 -8652103#0 -1226231204#1 290281427#1 426498645#0 426498646 426498206 290281426#0 290281426#1 544506503 426497571#0 -8641571#4 -8641571#2" id="route_93"/>
    <route edges="-832677772 -8646460 -1212692908#0 -426491387#2 -292807008#2 -292807008#1 292807008#1" id="route_94"/>
    <route edges="290276273 -290280037 114182715#1 -8652103#0 -1226231204#1 290281427#1 426498645#0 426498646 426498206 290281426#0 290281426#1 544506503 426497571#0 -1212692909 -1212692908#0 -426491387#2 -292807008#2 -292807008#1 -1089085520#1 -832439083#2 -85890998#1 -8647521#1" id="route_95"/>
    <route edges="-8641571#2 8641571#1 8641571#3 -1212692909 8646460" id="route_96"/>
    <route edges="290281426#0 290281426#1 636069022#0 636069022#1 1131145222#0 -947879228 633904936 292967031#0 292967031#1 993825359 8638395#0 8638395#1" id="route_97"/>
    <route edges="306150212#0 426659554#0 518404079#2 426659553#0 426659557 533607551 426498204 541022697 236579256 627757427#0 290281424#0 290276273 -290280037 -1279008918" id="route_98"/>
    <route edges="993825360#0 518404087 426659560#0 -85891007#2 -1120503844 -85890979 -427635744#1 427635744#0 85890979" id="route_99"/>
    <route edges="926764280#0 -8650834#1 -8650834#0 -8652103#0 -1226231204#1 290281427#1 426498645#0 426498646 426498206 290281426#0 290281426#1 544506503 426497571#0 -1212692909 -1212692908#0 -426491387#2 -292807008#2 -292807008#1 -1089085520#1 -832439083#2 -85890998#1 -1121694527#1 426488940#0 8646770" id="route_100"/>
    <route edges="85890979 426488942 85891007#0 292807009#0 -1089085521 -993825359 -678127463#1" id="route_101"/>
    <route edges="292809511#1 -8638395#0 1089085521 -1120509015 -85891007#2 -1120503844 -85890979" id="route_102"/>
    <route edges="1226231204#0 8652103#0 -8652103#0 -1226231204#1 290281424#0 290276273 -290280037" id="route_103"/>
    <route edges="114182715#0 114182715#1 -8652103#0 -1226231204#1 290281427#1 426498645#0 426498646 426498206 290281426#0 290281426#1 544506503 426497571#0 -1212692909 -1212692908#0 -426497569#2 -591235970#2 -293227068#3 -293227068#0 990899889#0" id="route_104"/>
    <route edges="-8643657 8643657 712375229#1" id="route_105"/>
    <route edges="292807008#1 292807008#2 426491387#0 426497570#0 1212692908#1 426498010 426498009#0 544506505#0 544506505#1 541022697 236579256 627757427#0 290281424#0 290281424#1" id="route_106"/>
    <route edges="8652103#0 -8652103#0 -1226231204#1 290281427#1 426498645#0 426498646 426498206 541022699 426498643#0 485262838 -947879228 633904936 292967031#0 292967031#1 993825360#0" id="route_107"/>
    <route edges="426488940#0 8646770 426489162 591217318" id="route_108"/>
    <route edges="-633904936 633904939#0 426659557 533607551 426498204 290281426#0 290281426#1 544506503 426497571#0 -1212692909 -1212692908#0 -426491387#2 -292807008#2 8646223#0 -8651870" id="route_109"/>
    <route edges="926764280#0 -8650834#1 -8650834#0 -8652103#0 -1226231204#1 290281427#1 426498645#0 426498646 426498206 290281426#0 290281426#1 544506503 426497571#0" id="route_110"/>
    <route edges="297218447 290281427#1 426498645#0 426498646 426498206 541022699 426498643#0 485262838 -947879228 633904936" id="route_111"/>
    <route edges="-290280037 114182715#1 -8652103#0 -1226231204#1 290281427#1 426498645#0 426498646 426498206 290281426#0 290281426#1 544506503 426497571#0 426498010 426498009#0" id="route_112"/>
    <route edges="292812690#1 -292812690#3 -292812690#0 -1089085520#1 -832439083#2 -85890998#1 -1121694527#1 426488940#0 8646770 426489162 591217318 8638390#0" id="route_113"/>
    <route edges="-678127463#0 678127463#0 678127463#1 -292967031#1 -292967031#0 -633904936 633904939#0 426659557 533607551 426498204 541022697 236579256 627757427#0 1226231204#0 8652103#0 8652103#1" id="route_114"/>
    <route edges="-292809511#0 292809511#0 -678127463#0 -798504564" id="route_115"/>
    <route edges="426497571#0 -8641571#4 -8641571#2 518404079#2" id="route_116"/>
    <route edges="-8638395#0 1089085521 -1120509015 -292812690#3 -292812690#0 292807008#1 292807008#2 426491387#0 -426497569#2 -591235970#2 -293227068#3" id="route_117"/>
    <route edges="8641115 8647263 832677773 -8641571#2" id="route_118"/>
    <route edges="426497570#0 1212692908#1 426498010 426498009#0 544506505#0 544506505#1 541022697 236579256 426498646" id="route_119"/>
    <route edges="290084391#0 518404079#0 8641571#1 8641571#3 426498010 426498009#0" id="route_120"/>
    <route edges="292967031#0 -292967031#0 -633904936 633904939#0 306150212#0 426659554#0 8641571#1 -832677773 -8647263 8647263" id="route_121"/>
    <route edges="-85310729#0 8640806 712375229#0 712375229#1 591235970#0 426497569#0 426497570#0 1212692908#1 426498010 426498009#0 544506505#0 544506505#1" id="route_122"/>
    <route edges="-8638395#1 -8638395#0 -993825359 -292967031#1 -292967031#0 -633904936 633904939#0 426659557 533607551 426498204 541022697 236579256" id="route_123"/>
    <route edges="485262838 426659557 533607551 426498204 541022697 236579256 627757427#0 1226231204#0 8652103#0 -8652103#0" id="route_124"/>
    <route edges="-8652103#0 -1226231204#1 290281427#1 426498645#0 426498646 426498206 541022699 426498643#0 485262838 -947879228 633904939#0" id="route_125"/>
    <route edges="-292808567 292967031#1 993825359 1089085521 -1120509015 292807009#0" id="route_126"/>
    <route edges="993825360#0" id="route_127"/>
    <route edges="-292808567 292967031#1 993825359 1089085521 -1120509015 -85891007#2 -1120503844 -85890979" id="route_128"/>
    <route edges="-8643657 85310729#1 293227068#1 591235970#0 426497569#0 8641115 8647263" id="route_129"/>
    <route edges="8640122 591217318 51811528#0 426488940#0 426488940#2 427635744#0 85890979 426488942 85891007#0 290084391#0 518404079#0 8641571#1" id="route_130"/>
    <route edges="1121696256#0 8645381 822604874 1089085520#0 292807008#1 292807008#2 426491387#0 426497570#0 1212692908#1 426498010 426498009#0 636069022#0 636069022#1 1131145222#0 -947879228 633904936 -633904936" id="route_131"/>
    <route edges="832677773 8641571#3 426498010 426498009#0 544506503" id="route_132"/>
    <route edges="426498204 290281426#0 290281426#1 544506503 426497571#0 -1212692909 -1212692908#0 -426497569#2 -591235970#2 -293227068#3 -293227068#0 990899889#0" id="route_133"/>
    <route edges="426659557 533607551 426498204 290281426#0 290281426#1 544506503 426497571#0 -1212692909 -1212692908#0 -426491387#2 -292807008#2 -292807008#1 -1089085520#1" id="route_134"/>
    <route edges="822604874 1089085520#0 292807008#1 8646223#0 -8651870" id="route_135"/>
    <route edges="426659560#0 292807009#0 -1089085521 -993825359 -292967031#1 -292967031#0 -633904936 633904939#0 426659557 292809927 8648213#0" id="route_136"/>
    <route edges="-426497569#2 -591235970#2 -293227068#3 -293227068#0" id="route_137"/>
    <route edges="-292967031#0 -633904936 633904939#0 426659557 533607551 426498204 290281426#0 290281426#1 544506503 426497571#0 -1212692909 -1212692908#0 -426491387#2 -292807008#2 -292807008#1 -1089085520#1 -832439083#2 -85890998#1 -1121694527#1 426488940#0 8646770 426489162" id="route_138"/>
    <route edges="-8646223#0 292807008#2 426491387#0 426497570#0 1212692908#1 426498010 426498009#0 544506505#0 544506505#1 541022699 426498643#0" id="route_139"/>
    <route edges="541022699 426498643#0 533607551 426498204 290281426#0 290281426#1 544506503 426497571#0 -1212692909 -1212692908#0 -426497569#2 -591235970#2 -293227068#3 -85310729#1" id="route_140"/>
    <route edges="426498646 426498206 290281426#0 290281426#1 544506503 426497571#0 -1212692909 -1212692908#0 -426491387#2 -292807008#2 8646223#0 -8646223#0" id="route_141"/>
    <route edges="292809744 -8638395#1 -8638395#0 1089085521 -1120509015 -292812690#3 -292812690#0 -1089085520#1 -832439083#2 -85890998#1 8645381" id="route_142"/>
    <route edges="85310729#1 293227068#1 591235970#0 426497569#0 -426491387#2 -292807008#2 -292807008#1 292812690#0 -292812690#0" id="route_143"/>
    <route edges="290276273 -290280037 114182715#1 -8652103#0 -1226231204#1 290281427#1 426498645#0 426498646 426498206 290281426#0 290281426#1 544506503 426497571#0 -1212692909 8646460 -8647263" id="route_144"/>
    <route edges="-1065418333 678127463#0 678127463#1" id="route_145"/>
    <route edges="426498646 426498206 290281426#0 290281426#1 544506503 426497571#0 -1212692909 -1212692908#0 -426497569#2 -591235970#2 -712375229#3 -8643657" id="route_146"/>
    <route edges="591235970#0 426497569#0 -426491387#2 -292807008#2 -292807008#1 -1089085520#1 -832439083#2 -85890998#1 -1121694527#1 426488940#0 8646770 426489162" id="route_147"/>
    <route edges="290281424#0 290281424#1 -8638021 8641654#0 290281427#1 426498645#0 426498646 426498206 290281426#0 290281426#1 544506503 426497571#0 -1212692909 -1212692908#0 -426491387#2 -292807008#2 -292807008#1 -1089085520#1" id="route_148"/>
    <route edges="-292808567 -292967031#0 -633904936 633904939#0 306150212#0 426659554#0 8641571#1 8641571#3" id="route_149"/>
    <route edges="8641654#0 290281427#1 426498645#0 426498646 426498206 290281426#0 290281426#1 544506503 426497571#0 -1212692909 -1212692908#0 -426491387#2 -292807008#2 -292807008#1 -1089085520#1 -832439083#2 -85890998#1 -1121694527#1 426488940#0 426488940#2 427635744#0 85890979 426488942" id="route_150"/>
    <route edges="832677773 8641571#3 426498010 426498009#0 544506503 426497571#0" id="route_151"/>
    <route edges="-632602969 633904939#0 426659557 533607551 426498204 290281426#0 290281426#1 544506503 426497571#0 -1212692909 -1212692908#0 -426491387#2" id="route_152"/>
    <route edges="-8651870 -292812690#0 292807008#1 292807008#2 426491387#0 -426497569#2 -591235970#2 -712375229#3 -8643657 8643657" id="route_153"/>
    <route edges="712375229#0 712375229#1 591235970#0 426497569#0 8641115 734528310 -993825360#1 993825359 8638395#0" id="route_154"/>
    <route edges="8641571#3 -1212692909 -1212692908#0 -426491387#2 -292807008#2 -292807008#1 292812690#0 292812690#1 -85891007#2 -1120503844 -85890979" id="route_155"/>
    <route edges="-8641571#2 426659559#0 -993825360#1 -292967031#1 -292967031#0" id="route_156"/>
    <route edges="636069022#1 1131145222#0 306150212#0 426659554#0 8641571#1 8641571#3" id="route_157"/>
    <route edges="187589433 1121696256#0 8645381 822604874 1089085520#0 292807008#1 292807008#2 426491387#0 426497570#0 1212692908#1 -8641571#4 -8641571#2 518404079#2 426659553#0" id="route_158"/>
    <route edges="-633904936 633904939#0 426659557 533607551 426498204 290281426#0 290281426#1 544506503 426497571#0 -1212692909 -1212692908#0 -426491387#2 -292807008#2 -292807008#1 -1089085520#1 -832439083#2 -85890998#1 -1121694527#1 426488940#0 8646770" id="route_159"/>
    <route edges="8638021 926995007" id="route_160"/>
    <route edges="734528310 518404079#0 8641571#1" id="route_161"/>
    <route edges="-1120509015 -292812690#3 -292812690#0 292807008#1 292807008#2 426491387#0 426497570#0 1212692908#1 426498010 426498009#0 544506505#0 544506505#1 541022697 236579256 627757427#0" id="route_162"/>
    <route edges="-926995007 -8638021 8641654#0 290281427#1 426498645#0 426498646 426498206 290281426#0 290281426#1 544506503 426497571#0 -1212692909 -1212692908#0 8641115 8647263" id="route_163"/>
    <route edges="712375229#1 591235970#0 426497569#0 8641115 734528310 -993825360#1 993825359 8638395#0 8638395#1" id="route_164"/>
    <route edges="734528310 518404079#0 8641571#1 8641571#3 -1212692909 -1212692908#0 -426491387#2 -292807008#2 8646223#0 -8646223#0" id="route_165"/>
    <route edges="678127463#0 678127463#1 -292967031#1" id="route_166"/>
    <route edges="8638395#1 -292809744 678127463#0 678127463#1 993825359 8638395#0" id="route_167"/>
    <route edges="-85891007#2 -1120503844 -85890979 -427635744#1 427635744#0 85890979 426488942 85891007#0 290084391#0 518404079#0 8641571#1 -832677773 832677772" id="route_168"/>
    <route edges="292807008#2 426491387#0 426497570#0 1212692908#1 426498010 426498009#0 544506505#0 544506505#1 541022697 236579256 627757427#0 1226231204#0 8652103#0 8652103#1 8650834#1 -926764280#0" id="route_169"/>
    <route edges="712375229#0 712375229#1 591235970#0 426497569#0 426497570#0 1212692908#1 426498010 426498009#0 544506505#0 544506505#1 541022697 236579256 627757427#0 290281424#0 290281424#1 -8638021" id="route_170"/>
    <route edges="-1120509015 290084391#0 518404079#0 8641571#1 -832677773" id="route_171"/>
    <route edges="-926764280#1 -8650834#1 -8650834#0 -8652103#0 -1226231204#1 290281427#1 426498645#0 426498646 426498206 541022699 426498643#0 485262838 -947879228 633904936 292967031#0 292967031#1 993825359 8638395#0 8638395#1" id="route_172"/>
    <route edges="8652103#1 -8650834#0 -8652103#0 -1226231204#1 290281427#1 426498645#0 426498646 426498206 290281426#0 290281426#1 544506503 426497571#0 -1212692909 -1212692908#0 -426491387#2 -292807008#2 -292807008#1 -1089085520#1 -832439083#2 -85890998#1 -8647521#1" id="route_173"/>
    <route edges="426659553#0 426659557 533607551 426498204 541022697 236579256" id="route_174"/>
    <route edges="987968836 544506505#1 290281426#0 290281426#1 544506503 426497571#0 -1212692909 -1212692908#0 -426491387#2 -292807008#2 -292807008#1 -1089085520#1 -832439083#2 -85890998#1 -1121694527#1 426488940#0" id="route_175"/>
    <route edges="8647263 -8646460 -1212692908#0 -426497569#2 -591235970#2 -293227068#3 -293227068#0" id="route_176"/>
    <route edges="926764280#0 -8650834#1 -8650834#0 -8652103#0 -1226231204#1 290281427#1 426498645#0 426498646 426498206 290281426#0 290281426#1 544506503 426497571#0 -1212692909 -1212692908#0 -426497569#2 -591235970#2 -712375229#3" id="route_177"/>
    <route edges="8652103#1 -8650834#0 -8652103#0 -1226231204#1 290281427#1 426498645#0 426498646 426498206 290281426#0 290281426#1 544506503 426497571#0 -1212692909 -1212692908#0 -426491387#2 -292807008#2 8646223#0 -8646223#0" id="route_178"/>
    <route edges="-292967031#1 -292967031#0 -633904936 633904939#0 426659557 533607551 426498204 290281426#0 290281426#1" id="route_179"/>
    <route edges="544506505#0 544506505#1 541022697 236579256 627757427#0 1226231204#0 8652103#0 8652103#1 8650834#1 -926764280#0 -926995007" id="route_180"/>