<?xml version="1.0" encoding="UTF-8"?>

<routes>
    <!-- <vType id="NDD" carFollowModel="IDMNEW" stepping="1" laneChangeModel="LCNEW" tau="0.2" accel="2.0" decel="4.0" length="5.0" minGap="2.0" maxSpeed="40.0" lcAccelLat="20000.0" actionStepLength="1.0"/>  -->
    <!-- <vType id="IDM" carFollowModel="IDM" stepping="1" laneChangeModel="SL2015" tau="1.0" accel="2.0" decel="4.0" length="5.0" minGap="2.0" maxSpeed="20.0" lcAccelLat="20000.0"/> -->
    <vType id="IDM" carFollowModel="IDM" stepping="1" laneChangeModel="SL2015" tau="0.2" accel="2.0" decel="4.0" length="5.0" minGap="2.0" maxSpeed="40.0" lcAccelLat="20000.0"/>
    <route edges="635470894 634255234 479388625 634255233 655149206 746976889#1 746976887 538766118#0 538766118#1 746966173 120719659#0 120719659#1 746963951 634223813 634702969 746967062 -96670626 -747038554 -479552718" id="route_0"/>
    <route edges="168242590 479608894 538766103 743297324 464985775 639936522 743294539 743294536 538766118#0 538766118#1 746966173 120719659#0" id="route_1"/>
    <route edges="644922572 747368578 449399358 747369067 747369738 638912257 634702969 746967062 479608893 538766114 96677745 -741980772#1 -741980772#0 -741980771#0 -669036662 639874638" id="route_2"/>
    <route edges="746655212 314385986 1156268462 538767555 634722286 538767561#0 538767561#1 1122255696 479388631 533283452 262819996 652296706 262819990 526887917 479770578 746702000 668585464 479770577 479612876 -538769201 -742170149 -538769212#1 -538769212#0 -646647827" id="route_3"/>
    <route edges="479568120 526887917 479770578 652549727 479770579 403795728 479766701 649392322 635689731 746690575 639934621 96670625#0 96670625#1 96670625#2 675079026 -538766109" id="route_4"/>
    <route edges="120719658#1 120719658#2 655148853 634257156 634255233 655149206 746976889#1 746976887 538766118#0 538766118#1" id="route_5"/>
    <route edges="-479753340 -639568319 538767564 -1038616655 -741980092 746960991 746961045 741980093 1038616655" id="route_6"/>
    <route edges="635689731 746690575 746688152 634722287 647111334 538767558 639934188 743255421 448937538 538769210" id="route_7"/>
    <route edges="120719658#1 120719658#2 655148853 634257156 634255233 655149206 746976889#1 746976887 -538766111#1 -743297325 639936523 573713869" id="route_8"/>
    <route edges="655644175 512870222#0 644626278#0 22278331#0 22278331#1 22278331#2 635470894 634255234 479388625 634257155 655492366#0 655492366#1 655492366#2 96670628 655492363 538767575 262819992 746690575 746688152 634722287 647111334 538767558 639934188 743255421 169421671 -169421671" id="route_9"/>
    <route edges="655641116 538766098#0 573704870#0 655571315 728236606 573704883 633617699 639999881" id="route_10"/>
    <route edges="314385981 746653374 746655212 314385986 746961045 741980093 1038616655 -743281343" id="route_11"/>
    <route edges="747368578 449399358 747369067 747369738 638912257 634702969 746967062 479608893 538766114 96677745 746960991 746656963 538767549 538770176 314385981" id="route_12"/>
    <route edges="-647111334 -634722287 -538769218 -743281343 -538766109 538766118#0 538766118#1 746966173 120719659#0 120719659#1 746963951 634223813 634702969 746967062 -96670626 -747038554 -479552718 -668798705" id="route_13"/>
    <route edges="741980093 1038616655 -743281343 -538766109 538766118#0 538766118#1 746966173 120719659#0 120719659#1 746963951 634223813" id="route_14"/>
    <route edges="655641116 538766098#0 573704870#0 655571315 728236606 746714120 573704873#0 573704871 655644175 512870222#0 644626278#0 22278331#0 22278331#1 22278331#2 635470894 634255234 479388625 634257155 655492366#0 655492366#1 655492366#2 141428143#0 141428143#1 159115036#0 159115036#1 644466857" id="route_15"/>
    <route edges="538767561#1 1122255696 479388631 635689173 635689731 746690575 746688152 634722287 647111334 538767558 639934188 743255421 169421671 96668755" id="route_16"/>
    <route edges="449399358 747369067 747369738 638912257 634702969 746967062 479608893 538766114 96677745 746960991 1156268462 538767555 479753342 647111334 538767558 639934188 743255421 448937538 538769210 646647827 538769212#0 538769212#1" id="route_17"/>
    <route edges="675079026 -538766109 120719658#0 120719658#1 120719658#2 655148853 634257156" id="route_18"/>
    <route edges="742170149 538769201 742167351 479612875 479619179 668585466 652549727 479770579 403795728 479766701 649392322 96678021 479552717 1156275592 173896145#0 173896145#1 480227677 480227676#0 655641116 538766098#0 573704870#0 655571315 728236606 746714120 573704873#0" id="route_19"/>
    <route edges="640196567#0 640196567#1 333374585 -675335532 -684368039 -640196567#0 743294536 120719658#0 120719658#1 120719658#2 655148853 634257156 634257155 655492366#0 655492366#1 655492366#2 96670628 655492363 538767575 635689735 635689172 262819996 652296706 262819990 526887917 479770578 746702000 668585464 479770577 479612876 -538769201 -742170149 -538769212#1 -538769212#0 -646647827 -538769210" id="route_20"/>
    <route edges="120719659#0 120719659#1 746963951 634223813 634275860 479608894 538766103 175878990#0 649538096 573713867 633796584#0 644626278#0 22278331#0 22278331#1 22278331#2 635470894 634255234 479388625 1156275592 173896145#0 173896145#1" id="route_21"/>
    <route edges="-644922572 -747367551 -745327739 -740962221 -745349346 -639999881 -745356719 538766099 746714120 573704873#0 573704871 655644175 512870222#0 644626278#0 22278331#0 22278331#1 22278331#2 635470894 634255234 479388625 634257155 655492366#0 655492366#1 655492366#2 141428143#0" id="route_22"/>
    <route edges="-669036662 639874638 737200024 741976425 314385981 746653374 746655212 314385986 746961045 479390110 479390113 746966173 120719659#0 120719659#1 746963951 634223813 634275860 479608894 538766103 175878990#0 649538096 573713867 633796584#0 173896250#0 173166882#0" id="route_23"/>
    <route edges="634722287 647111334 538767558 639934188 743255421 448937538 538769210 646647827 538769212#0 538769212#1 742170149 538769201 742167351 479612875 479619179 668585466 652549727 479770579 403795728" id="route_24"/>
    <route edges="448937538 538769210 646647827 538769212#0 538769212#1 742170149 538769201 742167351 479612875 479619179 668585466 652549727 479770579 403795728 479766701 649392322 96678021 479552717 1156275592" id="route_25"/>
    <route edges="168242587 747369068 168242583 -22278659 -644922572 -747367551 -745327739 -740962221 -745349346 -639999881 -745356719 538766099 746714120 573704873#0 573704871 655644175 512870222#0 644626278#0 22278331#0 22278331#1 22278331#2 635470894 634255234 479388625 634255233 655149206 746976889#1" id="route_26"/>
    <route edges="635689173 96678021 479552717 634255233" id="route_27"/>
    <route edges="-747034361 746688152 -538769218 -743281343 -675079025 175840210 644466857" id="route_28"/>
    <route edges="-745349346 -639999881 -745356719 538766099 746714120 573704873#0 573704871 655644175 512870222#0 644626278#0 22278331#0 22278331#1 22278331#2 635470894 634255234 479388625 634257155 655492366#0 655492366#1 655492366#2 96670628 655492363 538767575 635689735 635689172 262819996 652296706 262819990 526887917 479770578 746702000 668585464 479770577 479612876 -538769201 -742170149 -538769212#1 -538769212#0 -646647827 -538769210 538769214 464985740" id="route_29"/>
    <route edges="96677745 479390110 -639568596 -479753340 -639568319 -675079025 -670463578 -96670625#1 -96670625#0 641071177#0 641071177#1 644466467#1 747039987#1 655492363 538767575 635689735 635689172" id="route_30"/>
    <route edges="538769212#1 742170149 538769201 742167351 479612875 479619179 668585466 652549727 479770579 403795728 479766701 649392322 635689731 746690575 639934621" id="route_31"/>
    <route edges="741979001 541928632 96678446 639874635 741980771#1 741980772#1 741980093 1038616655 743279979 538767561#0 538767561#1 1122255696 479388631 533283452 262819996 652296706 262819990 526887917 479770578 652549727" id="route_32"/>
    <route edges="120719659#1 746963951 634223813 634702969 746967062 479608893 538766114 -639568596 -479753340 -639568319 -538766109" id="route_33"/>
    <route edges="22278331#1 22278331#2 635470894 634255234 479388625 634255233 655149206 746976889#1 746976887 -538766111#1 -743297325 639936523 573713869 743297323 168242589" id="route_34"/>
    <route edges="1156275592 173896145#0 173896145#1 480227677 480227676#0 644626278#0 22278331#0 22278331#1 22278331#2 635470894 634255234 479388625 634255233 655149206 746976889#1 746976887 538766118#0 538766118#1 538766114 747037550" id="route_35"/>
    <route edges="743294539 743294536 120719658#0 120719658#1 120719658#2 655148853 634257156 1156275592 173896145#0 173896145#1 480227677 480227676#0 644626278#0 22278331#0 22278331#1" id="route_36"/>
    <route edges="635689735 635689172 262819996 652296706 652296707 479766701 649392322 635689731 746690575 746688152 479537328 479390106" id="route_37"/>
    <route edges="746960991 1156268462 538767555 634722286 538767561#0 538767561#1 1122255696 479388631 533283452 262819996 652296706 262819990 526887917 479770578 652549727 479770579" id="route_38"/>
    <route edges="168242587 747369068 168242583 -22278659 -644922572 -747367551 -745327739 -740962221 -745349346 -639999881 -745356719 538766099 746714120 573704873#0 573704871 655644175 168241645 173166882#0 173166882#1 652027920 168242577#0 743297324 464985775 639936522 743294539 743294536 120719658#0 159115037" id="route_39"/>
    <route edges="538769214 -644696196 -169421671 -743255421 -743279978 -538767558 -647111334 -634722287 -538769218 -743281343 -538766109 538766118#0 538766118#1 746966173 120719659#0 120719659#1 746963951 634223813 638912261 747369068 168242583" id="route_40"/>
    <route edges="573704883 538766099 746714120 573704873#0 573704871 655644175 512870222#0 644626278#0 22278331#0 22278331#1 22278331#2 635470894 634255234 479388625 634257155 655492366#0 655492366#1 655492366#2 96670628 655492363 538767575 262819992 746690575 746688152" id="route_41"/>
    <route edges="479390106 466551641 746961045 479390110 479390113 538766115 120719658#0 120719658#1 120719658#2" id="route_42"/>
    <route edges="96678446 639874635 741980771#1 741980772#1 479390110 479390113 538766115 -538766111#1 -743297325 639936523 573713869 743297323 448937539 572168500 538766122" id="route_43"/>
    <route edges="-647111334 -634722287 538767561#0 538767561#1 1122255696 479388631 533283452 262819996 652296706 262819990 526887917 479770578 746702000 668585464 479770577 479612876 -538769201 -742170149 -538769212#1 -538769212#0 -646647827 -538769210" id="route_44"/>
    <route edges="-675335532 -684368039 -640196567#0 -743297325 639936523 573713869 743297323 448937539 572168500 538766122 655696048 655696049 634702969" id="route_45"/>
    <route edges="655492366#0 655492366#1 655492366#2 141428143#0 141428143#1 646400892 641071178 96670625#0 96670625#1 96670625#2 675079026 639568320 639568318 639568595 747037550 747037547 639936516 479552719 747039014 479608893" id="route_46"/>
    <route edges="-639568319 -538766109 -538766111#1 -743297325 639936523 573713869 743297323 448937539 572168500 743297324 464985775" id="route_47"/>
    <route edges="96678021 479552717 634257155 655492366#0 655492366#1 655492366#2 96670628 655492363 538767575 262819992 746690575 746688152 538767561#0" id="route_48"/>
    <route edges="96668755 -464985741 538769210 646647827 538769212#0 538769212#1 742170149" id="route_49"/>
    <route edges="-333374586 -684368039 -640196567#0 -743297325 639936523 573713869 743297323 168242589 649538096 573713867 633796584#0 655641116 538766098#0 573704870#0 655571315 728236606 573704883 633617699 639999881 641121025" id="route_50"/>
    <route edges="639934188 743255421 169421671 -169421671 -743255421 -743279978 -538767558 -647111334 -634722287 538767561#0 538767561#1 1122255696 479388631 635689173 635689731 746690575 639934621 641071177#0 641071177#1 644466467#1 747039987#1 655492363 538767575" id="route_51"/>
    <route edges="168242587 747369068 168242583 -22278659 -644922572 -747367551 -745327739 -740962221 -745349346 -639999881 -745356719 538766099 746714120 573704873#0 573704871 655644175 512870222#0 644626278#0 22278331#0 22278331#1 22278331#2 635470894 634255234 479388625 634257155 655492366#0 655492366#1 655492366#2 96670628 655492363 538767575 635689735 635689172" id="route_52"/>
    <route edges="-675335532 -684368039 -640196567#0 743294536 120719658#0 120719658#1 120719658#2 655148853 634257156 634257155 655492366#0 655492366#1 655492366#2 96670628 655492363 538767575 635689735 635689172 262819996 652296706 262819990 526887917 479770578 746702000 668585464 479770577 479619180 479612875 479619179" id="route_53"/>
    <route edges="479770577 479619180 479612875 479619179 668585466 652549727 479770579 403795728 479766701 649392322 635689731 746690575 639934621 96670625#0 96670625#1 96670625#2 175840210 747058652" id="route_54"/>
    <route edges="743294539 743294536 538766118#0 538766118#1 746966173 120719659#0 120719659#1 746963951 634223813 634275860 479608894 538766103 538766122 655696048 168242587" id="route_55"/>
    <route edges="538766115 538766118#0 538766118#1 746966173 120719659#0 120719659#1 746963951 634223813 634702969 746967062 -96670626 -747038554 -479552718 -668798705 -747037548" id="route_56"/>
    <route edges="746714120 573704873#0 573704871 655644175 168241645 173166882#0 173166882#1 652027920 168242577#0 743297324 464985775 639936522 743294539 743294536" id="route_57"/>
    <route edges="175840209#0 175840209#1 641071178 641071177#0 641071177#1 644466467#1 747039987#1 655492363 538767575 635689735 635689172" id="route_58"/>
    <route edges="634255233 655149206 746976889#1 746976887 538766109 538767564 743279979 634722287 647111334 538767558 639934188 743255421 169421671 -169421671 -743255421 -743279978" id="route_59"/>
    <route edges="652027920 168242577#0 175878990#0 649538096 573713867 633796584#0 644626278#0 22278331#0 22278331#1 22278331#2 635470894 634255234 479388625 634257155 655492366#0 655492366#1 655492366#2 96670628 655492363 538767575" id="route_60"/>
    <route edges="652549727 479770579 403795728 479766701 649392322 635689731 746690575 746688152 538767561#0 538767561#1" id="route_61"/>
    <route edges="-1038616655 -741980092 479390110 479390113 746966173 120719659#0 120719659#1 746963951 634223813 634275860 479608894 22278666" id="route_62"/>
    <route edges="-464985741 -448937538 -743255421 -743279978 -538767558 -647111334 -634722287 -538769218 -743281343 -538766109 538766118#0 538766118#1 746966173 120719659#0 120719659#1 746963951 634223813 634702969 746967062" id="route_63"/>
    <route edges="743297323 168242589 649538096 573713867 633796584#0 655641116 538766098#0 573704870#0 655571315 728236606" id="route_64"/>
    <route edges="175840210 644466857 -670463578 -96670625#1 -96670625#0 -747034361 746688152 -538769218" id="route_65"/>
    <route edges="743297323 448937539 572168500 538766122 655696048 655696049 634702969 746967062 479608893 538766114 747037550 747037547 639936516 479552719 747039014" id="route_66"/>
    <route edges="-646647827 -538769210 -448937538 -743255421 -743279978 -538767558 -647111334 -634722287 -538769218 -743281343 -538766109 538766118#0 538766118#1 746966173 120719659#0 120719659#1 746963951 634223813 634275860 479608894 538766103" id="route_67"/>
    <route edges="-639999881 -745356719 538766099 746714120 573704873#0 573704871 655644175 168241645 173166882#0 173166882#1 652027920" id="route_68"/>
    <route edges="652027921#0 538766122 655696048 655696049 634702969 746967062 479608893 538766114 96677745 -741980772#1 -741980772#0 -741980771#0" id="route_69"/>
    <route edges="526887917 479770578 746702000 668585464 479770577 479612876 -538769201 -742170149 -538769212#1 -538769212#0 -646647827 -538769210 -448937538 169421671 -169421671 448937538 538769210 646647827 538769212#0" id="route_70"/>
    <route edges="168242587 747369068 168242583 -22278659 -644922572 -747367551 -745327739 -740962221 -745349346 -639999881 -745356719 538766099 746714120 573704873#0 573704871 655644175 168241645 173166882#0 173166882#1 652027920 168242577#0 743297324 464985775 639936522 743294539" id="route_71"/>
    <route edges="479568120 526887917 479770578 652549727 479770579 403795728 479766701 649392322 635689731 746690575 639934621 96670625#0 96670625#1 96670625#2 675079026 -538766109 120719658#0" id="route_72"/>
    <route edges="538767564 743279979 538767561#0 538767561#1 1122255696 479388631 635689173 96678021 479552717 1156275592 173896145#0 173896145#1 480227677 480227676#0 644626278#0" id="route_73"/>
    <route edges="1051771499 173896145#0 173896145#1 480227677 480227676#0 644626278#0 22278331#0" id="route_74"/>
    <route edges="96678021 479552717 634257155 655492366#0 655492366#1 655492366#2 96670628 655492363 538767575 635689735" id="route_75"/>
    <route edges="479612876 -538769201 -742170149 -538769212#1 -538769212#0 -646647827 -538769210 -448937538 -743255421 -743279978 -538767558 -647111334 -634722287 -538769218 -1038616655 -741980092 -741980772#1 -741980772#0 -741980771#0 538767552" id="route_76"/>
    <route edges="-741979379 639874635 741980771#1 741980772#1 479390110 479390113 746966173 120719659#0" id="route_77"/>
    <route edges="314385981 746653374 746655212 314385986 746961045 479390110 479390113 538766115 -538766111#1 -743297325 639936523 573713869" id="route_78"/>
    <route edges="120719659#1 746963951 634223813 634702969 746967062 479608893 538766115 120719658#0 120719658#1 120719658#2" id="route_79"/>
    <route edges="-639999881 -745356719 538766099 746714120 573704873#0 573704871 655644175 168241645 173166882#0 173166882#1 652027920 652027921#0 538766122 655696048 655696049 634702969 746967062 479608893 538766114 96677745 746960991 1156268462 538767555 634722286" id="route_80"/>
    <route edges="120719659#1 746963951 634223813 634275860 479608894 538766103 175878990#0 649538096 573713867 633796584#0 644626278#0 22278331#0 22278331#1 22278331#2 635470894 634255234 479388625 634257155 655492366#0 655492366#1 655492366#2 96670628 655492363 538767575 635689735 635689172 262819996 652296706 262819990 526887917 479770578 746702000" id="route_81"/>
    <route edges="742170149 538769201 742167351 479612875 479619179 668585466 652549727 479770579 403795728 479766701 649392322 96678021 479552717 1156275592 173896145#0 173896145#1 480227677 480227676#0 173896250#0 173166882#0 173166882#1 652027920 652027921#0 538766122 655696048 168242587 747369068 168242583 -22278659 -644922572 -747367551 -745327739 -740962221 -745349346 -639999881" id="route_82"/>
    <route edges="141428143#1 646400892 641071178 96670625#0 96670625#1 96670625#2 675079026 639568320 639568318 639568595" id="route_83"/>
    <route edges="120719658#0 159115037 644466857 675079026 639568320 639568318 639568595 96677745 -741980772#1 -741980772#0" id="route_84"/>
    <route edges="746976889#1 746976887 -538766111#1 -743297325 639936523 573713869 743297323 168242589 649538096 573713867 633796584#0 655641116 538766098#0 573704870#0" id="route_85"/>
    <route edges="512870222#0 644626278#0 22278331#0 22278331#1 22278331#2 635470894 634255234 479388625 634255233 655149206" id="route_86"/>
    <route edges="655641116 538766098#0 573704870#0 655571315 728236606 746714120 573704873#0 573704871 655644175 512870222#0 644626278#0 22278331#0 22278331#1 22278331#2 635470894 634255234 479388625 634257155 655492366#0 655492366#1 655492366#2 141428143#0 141428143#1 159115036#0 159115036#1 644466857 -670463578 -96670625#1" id="route_87"/>
    <route edges="-668798705 -747037548 -639568596 -479753340 -639568319 -675079025 -670463578 -96670625#1 -96670625#0 641071177#0 641071177#1 644466467#1 747039987#1 655492363 538767575 635689735 635689172 262819996 652296706 262819990 526887917 479770578 746702000 668585464 479770577 479612876" id="route_88"/>
    <route edges="479568120 526887917 479770578 652549727 479770579 403795728 479766701 649392322 96678021 479552717 1156275592 173896145#0 173896145#1 480227677" id="route_89"/>
    <route edges="644466857 675079026 639568320 639568318 639568595 96677745 746960991 746656963 -741979379 639874635" id="route_90"/>
    <route edges="96670625#2 675079026 639568320 639568318 639568595 479390113 746966173 120719659#0 120719659#1 746963951 634223813 634702969 746967062 -96670626 -747038554 -479552718 -668798705" id="route_91"/>
    <route edges="479390110 96677745 746960991 746656963 538767549 538770176 314385981" id="route_92"/>
    <route edges="742170149 538769201 742167351 479612875 479619179 668585466 652549727 479770579 403795728 479766701 649392322 96678021 479552717 1156275592 173896145#0 173896145#1 480227677 480227676#0 655641116 538766098#0 573704870#0 655571315 728236606 746714120 573704873#0 573704871 655644175 168241645" id="route_93"/>
    <route edges="-96670625#1 -96670625#0 641071177#0 641071177#1 644466467#1 747039987#1 655492363 538767575 635689735 635689172 262819996 652296706 652296707 479766701" id="route_94"/>
    <route edges="479568120 526887917 479770578 652549727 479770579 403795728 479766701 649392322 96678021 479552717 1156275592 173896145#0 173896145#1 480227677 480227676#0 173896250#0 173166882#0" id="route_95"/>
    <route edges="159115037 644466857 675079026 639568320 639568318 639568595 479390113 746966173 120719659#0 120719659#1 746963951" id="route_96"/>
    <route edges="479619180 479612875 479619179 668585466 652549727 479770579 403795728 479766701 649392322 635689731 746690575 746688152 634722287 647111334 538767558 639934188 743255421" id="route_97"/>
    <route edges="538769210 646647827 538769212#0 538769212#1 742170149 538769201 742167351 479612875 479619179 479770577 479612876 -538769201 -742170149 -538769212#1 -538769212#0" id="route_98"/>
    <route edges="96678446 538767552 538767549 741979001 314385988 737200024 741976425" id="route_99"/>
    <route edges="747369738 638912257 634702969 746967062 479608893 746966173" id="route_100"/>
    <route edges="741980771#1 741980772#1 479390110 479390113 746966173 120719659#0 120719659#1 746963951 634223813 638912261 747369068 168242583 -22278659 -644922572 -747367551 -745327739 -740962221 -745349346" id="route_101"/>
    <route edges="538766099 746714120 573704873#0 573704871 655644175 168241645 173166882#0 173166882#1 652027920 168242577#0 743297324 464985775 639936522 743294539 743294536 120719658#0" id="route_102"/>
    <route edges="479390106 466551641 1156268462 538767555 479753342 647111334 538767558 639934188 743255421 169421671 -169421671 -743255421 -743279978 -538767558 -647111334 -634722287" id="route_103"/>
    <route edges="449399358 747369067 747369738 638912257 634702969 746967062 479608893 538766115 120719658#0 159115037 175840209#0 175840209#1 641071178 96670625#0 96670625#1 96670625#2" id="route_104"/>
    <route edges="168242587 747369068 168242583 -22278659 -644922572 -747367551 -745327739 -740962221 -745349346 -639999881 -745356719 538766099 746714120 573704873#0 573704871 655644175 512870222#0 644626278#0 22278331#0 22278331#1 22278331#2 635470894 634255234 479388625 634255233 655149206" id="route_105"/>
    <route edges="479770577 479619180 479612875 479619179 668585466 652549727 479770579 403795728 479766701 649392322 635689731 746690575 639934621 96670625#0 96670625#1 96670625#2 675079026 639568320 639568318 639568595 747037550 747037547 639936516 479552719 747039014 479608893" id="route_106"/>
    <route edges="747368578 449399358 747369067 747369738 638912257 634275860 479608894 538766103 175878990#0 649538096 573713867 633796584#0 644626278#0 22278331#0 22278331#1 22278331#2 635470894 634255234 479388625 634257155 655492366#0 655492366#1 655492366#2 96670628 655492363 538767575 635689735 96678021" id="route_107"/>
    <route edges="538769212#1 742170149 538769201 742167351 479612875 479619179 668585466 652549727 479770579 403795728 479766701 649392322 96678021 479552717 634257155 655492366#0 655492366#1 655492366#2 141428143#0 141428143#1 646400892 641071178" id="route_108"/>
    <route edges="-743281343 -675079025 175840210 175840209#0" id="route_109"/>
    <route edges="747369738 638912257 638912261 747369068 168242583 -22278659 -644922572 -747367551 -745327739 -740962221 -745349346 -639999881 -745356719 538766099 746714120 573704873#0" id="route_110"/>
    <route edges="538767575 262819992 746690575 746688152 634722287 647111334" id="route_111"/>
    <route edges="-538769218 -743281343 -538766109 -538766111#1 -743297325 639936523 573713869 743297323 168242589 649538096 573713867" id="route_112"/>
    <route edges="538766115 538766109 639568320 639568318 639568595 96677745 746960991 746656963 -741979379 639874635 741980771#1 741980772#1" id="route_113"/>
    <route edges="-743297325 639936523 573713869 743297323 168242589 649538096 573713867 633796584#0 655641116 538766098#0 573704870#0 655571315 728236606 573704883 633617699 639999881 641121025 647562104 745327738 633617700 644922572 747368578 449399358 747369067" id="route_114"/>
    <route edges="-644922572 -747367551" id="route_115"/>
    <route edges="633617699 639999881 641121025 647562104 745327738 633617700 644922572 747368578 449399358 747369067 747369738 638912257 634702969 746967062 479608893 538766114 96677745 -741980772#1 -741980772#0 -741980771#0 -669036662 639874638" id="route_116"/>
    <route edges="141428143#0 141428143#1 646400892 641071178 96670625#0 96670625#1 96670625#2 675079026 639568320 639568318 639568595 479390113 746966173 120719659#0 120719659#1 746963951 634223813 638912261 747369068 168242583 -22278659 -644922572 -747367551 -745327739 -740962221" id="route_117"/>
    <route edges="746653374 746655212 314385986 746961045 479390110 479390113 538766115 120719658#0 159115037" id="route_118"/>
    <route edges="633617699 639999881 641121025 647562104 745327738 633617700 644922572 747368578 449399358 747369067 747369738 638912257 634702969 746967062 479608893 538766115 120719658#0 120719658#1 120719658#2 655148853 634257156" id="route_119"/>
    <route edges="479552719 747039014 479608893 538766115 -538766111#1 -743297325 639936523 573713869 743297323 168242589 649538096 573713867 633796584#0 655641116 538766098#0 573704870#0 655571315 728236606 573704883" id="route_120"/>
    <route edges="538767555 634722286 538767561#0 538767561#1 1122255696 479388631 635689173 96678021 479552717 634255233 655149206 746976889#1" id="route_121"/>
    <route edges="1122255696 479388631 635689173 96678021 479552717 634257155 655492366#0 655492366#1 655492366#2 141428143#0 141428143#1 646400892 641071178" id="route_122"/>
    <route edges="141428143#1 646400892 641071178 -747034361 746688152 479537328 479390106" id="route_123"/>
    <route edges="639568595 479390113 538766115 120719658#0 159115037 175840209#0 175840209#1" id="route_124"/>
    <route edges="22278331#1 22278331#2 635470894 634255234 479388625 634257155 655492366#0 655492366#1 655492366#2 96670628 655492363 538767575 635689735 635689172 262819996 652296706 652296707 479766701 649392322" id="route_125"/>
    <route edges="-640196567#0 743294536 120719658#0 120719658#1 120719658#2 655148853 634257156 634257155 655492366#0 655492366#1 655492366#2 96670628 655492363 538767575 635689735 635689172 262819996 652296706 262819990 526887917 479770578 652549727 479770579" id="route_126"/>
    <route edges="96678446 639874635 741980771#1 741980772#1 741980093 1038616655 743279979 538767561#0 538767561#1 1122255696 479388631 635689173 96678021" id="route_127"/>
    <route edges="-640196567#0 743294536 120719658#0" id="route_128"/>
    <route edges="168242587 747369068 168242583 -22278659 -644922572 -747367551 -745327739 -740962221 -745349346 -639999881 -745356719 538766099 746714120 573704873#0 573704871 655644175 512870222#0 644626278#0 22278331#0 22278331#1 22278331#2 635470894 634255234 479388625 634255233 655149206 746976889#1 746976887" id="route_129"/>
    <route edges="743297324 464985775 639936522 743294539 640196567#0 640196567#1 333374585 -675335532 -684368039 -640196567#0 -743297325 639936523 573713869 743297323" id="route_130"/>
    <route edges="448937433 634255233 655149206 746976889#1 746976887 -538766111#1 -743297325" id="route_131"/>
    <route edges="737200024 741976425 314385981 746653374 746655212 314385986 746961045 479390110 479390113 538766115 -538766111#1 640196567#0" id="route_132"/>
    <route edges="634255233 655149206 746976889#1 746976887 120719658#0 120719658#1 120719658#2 655148853 634257156 634257155 655492366#0 655492366#1 655492366#2 96670628" id="route_133"/>
    <route edges="635689735 96678021 479552717 1156275592 173896145#0 173896145#1 480227677 480227676#0 173896250#0 173166882#0 173166882#1 652027920 652027921#0 538766122 655696048 168242587 747369068 168242583 -22278659" id="route_134"/>
    <route edges="655696049 634702969 746967062 479608893 538766115 120719658#0 159115037 175840209#0 175840209#1" id="route_135"/>
    <route edges="639568318 639568595 747037550 747037547" id="route_136"/>
    <route edges="-741980772#1 -741980772#0 -741980771#0 538767552 314385986 746961045 479390110 479390113 538766115 -538766111#1 640196567#0 640196567#1 333374585 -675335532 -684368039" id="route_137"/>
    <route edges="-675079025 -670463578 -96670625#1 -96670625#0 -747034361 746688152 634722287 647111334 538767558 639934188 743255421 448937538 538769210 646647827 538769212#0 538769212#1" id="route_138"/>
    <route edges="168242590 479608894 538766103 743297324 464985775 639936522 743294539 743294536 538766118#0 538766118#1 746966173 120719659#0 120719659#1 746963951 634223813" id="route_139"/>
    <route edges="641071178 -747034361 746688152 538767561#0 538767561#1 1122255696" id="route_140"/>