<?xml version="1.0" encoding="UTF-8"?>

<configuration>

    <input>
        <net-file value="singapore-onenorth.net.xml"/>
        <route-files value="singapore-onenorth-d2rl-example.rou.xml"/>
    </input>

    <!-- <output>
	    <netstate-dump value="3LaneHighway.output.xml"/>
    </output> -->

    <gui_only>
        <gui-settings-file value="singapore-onenorth.view.xml"/>
        <start value="true"/>
        <quit-on-end value="true"/>
    </gui_only>

</configuration>
