<?xml version="1.0" encoding="UTF-8"?>

<!-- generated on 2024-08-19 11:24:00 by Eclipse SUMO netedit Version 1.19.0
<configuration xmlns:xsi="http://www.w3.org/2001/XMLSchema-instance" xsi:noNamespaceSchemaLocation="http://sumo.dlr.de/xsd/neteditConfiguration.xsd">

    <input>
        <sumo-net-file value="E:\D2RL-VTD\Dense-Deep-Reinforcement-Learning-main\maps\2LaneHighway\2LaneHighway.net.xml"/>
    </input>

    <output>
        <output-file value="E:\D2RL-VTD\Dense-Deep-Reinforcement-Learning-main\maps\2LaneHighway\2LaneHighway.net.xml"/>
    </output>

    <processing>
        <geometry.min-radius.fix.railways value="false"/>
        <geometry.max-grade.fix value="false"/>
        <offset.disable-normalization value="true"/>
        <lefthand value="0"/>
    </processing>

    <junctions>
        <no-internal-links value="true"/>
        <no-turnarounds value="true"/>
        <junctions.corner-detail value="5"/>
        <junctions.limit-turn-speed value="5.50"/>
        <rectangular-lane-cut value="0"/>
    </junctions>

    <pedestrian>
        <walkingareas value="0"/>
    </pedestrian>

</configuration>
-->

<net version="1.16" junctionCornerDetail="5" limitTurnSpeed="5.50" xmlns:xsi="http://www.w3.org/2001/XMLSchema-instance" xsi:noNamespaceSchemaLocation="http://sumo.dlr.de/xsd/net_file.xsd">

    <location netOffset="0.00,0.00" convBoundary="0.00,50.00,300.00,50.00" origBoundary="-10000000000.00,-10000000000.00,10000000000.00,10000000000.00" projParameter="!"/>

    <edge id="0to1" from="node0" to="node1" priority="-1">
        <lane id="0to1_0" index="0" disallow="pedestrian tram rail_urban rail rail_electric rail_fast ship" speed="40.00" length="300.00" width="4.00" shape="0.00,44.00 300.00,44.00"/>
        <lane id="0to1_1" index="1" disallow="pedestrian tram rail_urban rail rail_electric rail_fast ship" speed="40.00" length="300.00" width="4.00" shape="0.00,48.00 300.00,48.00"/>
    </edge>

    <junction id="node0" type="dead_end" x="0.00" y="50.00" incLanes="" intLanes="" shape="0.00,50.00 0.00,42.00"/>
    <junction id="node1" type="dead_end" x="300.00" y="50.00" incLanes="0to1_0 0to1_1" intLanes="" shape="300.00,42.00 300.00,50.00"/>

</net>
