<?xml version="1.0" encoding="UTF-8"?>

<!-- generated on 2024-08-19 14:54:05 by Eclipse SUMO netedit Version 1.19.0
<configuration xmlns:xsi="http://www.w3.org/2001/XMLSchema-instance" xsi:noNamespaceSchemaLocation="http://sumo.dlr.de/xsd/neteditConfiguration.xsd">

    <input>
        <sumo-net-file value="E:\D2RL-VTD\Dense-Deep-Reinforcement-Learning-main\maps\town04_straight\Town04.net.xml"/>
    </input>

    <output>
        <output-file value="E:\D2RL-VTD\Dense-Deep-Reinforcement-Learning-main\maps\town04_straight\Town04.net.xml"/>
    </output>

    <processing>
        <geometry.min-radius.fix.railways value="false"/>
        <geometry.max-grade.fix value="false"/>
        <offset.disable-normalization value="true"/>
        <lefthand value="0"/>
    </processing>

    <junctions>
        <no-turnarounds value="true"/>
        <junctions.corner-detail value="5"/>
        <junctions.limit-turn-speed value="-1.00"/>
        <rectangular-lane-cut value="1"/>
    </junctions>

    <pedestrian>
        <walkingareas value="0"/>
    </pedestrian>

</configuration>
-->

<net version="1.16" junctionCornerDetail="5" rectangularLaneCut="true" xmlns:xsi="http://www.w3.org/2001/XMLSchema-instance" xsi:noNamespaceSchemaLocation="http://sumo.dlr.de/xsd/net_file.xsd">

    <location netOffset="503.02,423.76" convBoundary="125.29,405.92,897.92,800.65" origBoundary="-499.52,-420.26,409.23,380.40" projParameter="!"/>

    <edge id=":703_0" function="internal">
        <lane id=":703_0_0" index="0" disallow="pedestrian tram rail_urban rail rail_electric rail_fast ship" speed="40.00" length="59.33" width="3.50" shape="510.65,718.92 502.58,704.80 493.05,690.60 484.14,678.20 477.91,669.51"/>
    </edge>
    <edge id=":703_1" function="internal">
        <lane id=":703_1_0" index="0" disallow="pedestrian tram rail_urban rail rail_electric rail_fast ship" speed="40.00" length="56.75" width="3.50" shape="510.65,718.92 505.16,704.85 501.58,690.27 499.33,676.26 497.80,663.90"/>
    </edge>
    <edge id=":703_2" function="internal">
        <lane id=":703_2_0" index="0" disallow="pedestrian tram rail_urban rail rail_electric rail_fast ship" speed="40.00" length="59.80" width="3.50" shape="513.79,717.37 505.68,703.19 496.07,688.84 487.07,676.31 480.81,667.55"/>
    </edge>
    <edge id=":703_3" function="internal">
        <lane id=":703_3_0" index="0" disallow="pedestrian tram rail_urban rail rail_electric rail_fast ship" speed="40.00" length="56.03" width="3.50" shape="513.79,717.37 507.80,703.54 503.15,689.50 499.82,676.02 497.80,663.90"/>
        <lane id=":703_3_1" index="1" disallow="pedestrian tram rail_urban rail rail_electric rail_fast ship" speed="40.00" length="54.85" width="3.50" shape="516.92,715.82 511.00,702.17 506.46,688.51 503.24,675.42 501.28,663.48"/>
        <lane id=":703_3_2" index="2" disallow="pedestrian tram rail_urban rail rail_electric rail_fast ship" speed="40.00" length="53.68" width="3.50" shape="520.06,714.27 514.19,700.79 509.77,687.52 506.67,674.81 504.75,663.05"/>
    </edge>
    <edge id=":J0_0" function="internal">
        <lane id=":J0_0_0" index="0" disallow="pedestrian tram rail_urban rail rail_electric rail_fast ship" speed="40.00" length="8.29" width="3.50" shape="856.69,778.70 854.36,779.95 852.37,780.03 850.34,780.08 847.91,781.21"/>
        <lane id=":J0_0_1" index="1" disallow="pedestrian tram rail_urban rail rail_electric rail_fast ship" speed="40.00" length="8.29" width="3.50" shape="854.44,776.02 847.91,781.21"/>
        <lane id=":J0_0_2" index="2" disallow="pedestrian tram rail_urban rail rail_electric rail_fast ship" speed="40.00" length="8.29" width="3.50" shape="852.19,773.34 845.82,778.40"/>
        <lane id=":J0_0_3" index="3" disallow="pedestrian tram rail_urban rail rail_electric rail_fast ship" speed="40.00" length="8.29" width="3.50" shape="849.94,770.66 843.74,775.59"/>
        <lane id=":J0_0_4" index="4" disallow="pedestrian tram rail_urban rail rail_electric rail_fast ship" speed="40.00" length="8.29" width="3.50" shape="847.69,767.98 841.65,772.78"/>
    </edge>

    <edge id="-23.0.00" from="703" to="804" priority="1" type="shoulder|driving|driving|shoulder" shape="482.26,666.57 481.70,665.74 481.13,664.90 480.57,664.07 480.00,663.24 479.43,662.41 478.85,661.58 478.28,660.75 477.70,659.92 477.12,659.10 476.54,658.27 475.96,657.45 475.37,656.63 474.79,655.81 474.20,654.99 473.61,654.17 473.02,653.36 472.43,652.54 471.83,651.73 471.23,650.92 470.64,650.11 470.04,649.30 469.43,648.49 468.83,647.68 468.22,646.88 467.62,646.07 467.01,645.27 466.39,644.47 465.78,643.67 465.17,642.87 464.55,642.07 463.93,641.28 463.31,640.48 462.69,639.69 462.06,638.90 461.44,638.11 460.81,637.32 460.18,636.53 459.55,635.75 458.92,634.96 458.28,634.18 457.65,633.40 457.01,632.62 456.37,631.84 455.73,631.06 455.09,630.29 454.44,629.51 453.79,628.74 453.15,627.97 452.50,627.20 451.83,626.40 451.21,625.68 450.60,624.96 449.99,624.23 449.37,623.51 448.72,622.74 448.06,621.97 447.41,621.20 446.75,620.44 446.08,619.68 445.42,618.92 444.75,618.16 444.08,617.40 443.41,616.65 442.74,615.89 442.06,615.14 441.38,614.39 440.70,613.65 440.02,612.90 439.33,612.16 438.65,611.42 437.96,610.68 437.27,609.94 436.57,609.21 435.88,608.48 435.18,607.75 434.48,607.02 433.78,606.29 433.08,605.57 432.37,604.84 431.66,604.12 430.95,603.40 430.24,602.69 429.52,601.97 428.81,601.26 428.09,600.55 427.37,599.84 426.64,599.14 425.92,598.43 425.19,597.73 424.46,597.03 423.73,596.34 423.00,595.64 422.26,594.95 421.53,594.26 420.79,593.57 420.05,592.88 419.30,592.20 418.56,591.52 417.81,590.84 417.06,590.16 416.31,589.48 415.56,588.81 414.80,588.14 414.05,587.47 413.29,586.80 412.53,586.14 411.76,585.48 411.00,584.82 410.23,584.16 409.46,583.50 408.69,582.85 407.92,582.20 407.15,581.55 406.37,580.90 405.59,580.26 404.81,579.62 404.03,578.98 403.25,578.34 402.46,577.70 401.67,577.07 400.89,576.44 400.09,575.81 399.30,575.19 398.51,574.56 397.71,573.94 396.91,573.32 396.11,572.70 395.31,572.09 394.51,571.48 393.70,570.87 392.89,570.26 392.08,569.66 391.27,569.05 390.46,568.45 389.65,567.86 388.83,567.26 388.01,566.67 387.19,566.08 386.37,565.49 385.55,564.90 384.72,564.32 383.90,563.74 383.07,563.16 382.24,562.58 381.41,562.01 380.57,561.44 379.74,560.87 378.90,560.30 378.06,559.74 377.22,559.18 376.38,558.62 375.54,558.06 374.70,557.51 373.85,556.96 373.00,556.41 372.15,555.86 371.30,555.32 370.45,554.77 369.59,554.24 368.74,553.70 367.88,553.16 367.02,552.63 366.16,552.10 365.30,551.58 364.44,551.05 363.57,550.53 362.70,550.01 361.84,549.49 360.97,548.98 360.09,548.47 359.23,547.96 359.07,547.87 358.23,547.39 357.40,546.90 356.57,546.42 355.73,545.93 354.90,545.45 354.06,544.96 353.23,544.48 352.39,543.99 351.56,543.51 350.72,543.02 349.89,542.54 349.05,542.05 348.22,541.57 347.38,541.09 346.54,540.60 345.67,540.09 344.79,539.59 343.91,539.09 343.03,538.59 342.15,538.10 341.26,537.61 340.37,537.12 339.49,536.63 338.60,536.15 337.70,535.67 336.81,535.20 335.91,534.72 335.02,534.26 334.12,533.79 333.22,533.33 332.32,532.87 331.41,532.41 330.51,531.96 329.60,531.51 328.69,531.06 327.78,530.62 326.87,530.18 325.96,529.74 325.04,529.30 324.13,528.87 323.21,528.45 322.29,528.02 321.37,527.60 320.45,527.18 319.52,526.77 318.60,526.36 317.67,525.95 316.74,525.54 315.82,525.14 314.88,524.75 313.95,524.35 313.02,523.96 312.08,523.57 311.15,523.19 310.21,522.80 309.27,522.43 308.33,522.05 307.39,521.68 306.45,521.31 305.50,520.95 304.56,520.58 303.61,520.23 302.66,519.87 301.71,519.52 300.76,519.17 299.81,518.83 298.86,518.48 297.90,518.15 296.95,517.81 295.99,517.48 295.03,517.15 294.07,516.83 293.11,516.51 292.15,516.19 291.19,515.87 290.23,515.56 289.26,515.25 288.30,514.95 287.33,514.65 286.36,514.35 285.39,514.06 284.42,513.77 283.45,513.48 282.48,513.20 281.51,512.91 280.54,512.64 279.56,512.36 278.59,512.09 277.61,511.83 276.63,511.56 275.65,511.31 274.67,511.05 273.69,510.80 272.71,510.55 271.73,510.30 270.75,510.06 269.76,509.82 268.78,509.58 267.79,509.35 266.81,509.12 265.82,508.90 264.83,508.68 263.84,508.46 262.85,508.24 261.86,508.03 260.87,507.83 259.88,507.62 258.89,507.42 257.90,507.22 256.90,507.03 255.91,506.84 254.91,506.65 253.92,506.47 252.92,506.29 251.92,506.12 250.93,505.94 249.93,505.78 248.93,505.61 247.93,505.45 246.93,505.29 245.93,505.13 244.93,504.98 243.93,504.84 242.92,504.69 241.92,504.55 240.92,504.41 239.92,504.28 238.91,504.15 237.91,504.02 236.90,503.90 235.90,503.78 234.89,503.67 233.89,503.55 232.88,503.45 231.87,503.34 230.86,503.24 229.86,503.14 228.85,503.05 227.84,502.95 226.83,502.87 225.82,502.78 224.81,502.70 223.80,502.63 222.80,502.55 221.79,502.48 220.77,502.42 219.76,502.36 218.75,502.30 217.74,502.24 216.73,502.19 215.72,502.14 214.71,502.10 213.70,502.06 212.69,502.02 211.67,501.99 210.66,501.96 209.65,501.93 208.64,501.91 207.63,501.89 207.52,501.88 206.68,501.87 205.84,501.86 205.00,501.84 204.16,501.83 203.32,501.81 202.49,501.80 201.52,501.78 200.57,501.74 199.61,501.69 198.66,501.64 197.70,501.57 196.75,501.49 195.80,501.39 194.85,501.29 193.90,501.17 192.95,501.04 192.01,500.90 191.06,500.75 190.12,500.58 189.18,500.41 188.24,500.22 187.31,500.02 186.37,499.81 185.44,499.58 184.52,499.35 183.59,499.10 182.67,498.85 181.75,498.58 180.84,498.30 179.93,498.01 179.02,497.70 178.12,497.39 177.22,497.06 176.32,496.73 175.43,496.38 174.54,496.02 173.66,495.65 172.78,495.27 171.91,494.88 171.04,494.48 170.18,494.06 169.32,493.64 168.47,493.20 167.63,492.76 166.79,492.30 165.95,491.84 165.12,491.36 164.30,490.88 163.48,490.38 162.67,489.87 161.86,489.35 161.07,488.83 160.28,488.29 159.49,487.74 158.71,487.19 157.94,486.62 157.18,486.04 156.42,485.46 155.67,484.87 154.93,484.26 154.20,483.65 153.47,483.03 152.75,482.40 152.04,481.76 151.34,481.11 150.64,480.45 149.96,479.78 149.28,479.11 148.61,478.43 147.95,477.73 147.30,477.03 146.65,476.33 146.02,475.61 145.39,474.89 144.78,474.16 144.17,473.42 143.57,472.67 142.98,471.92 142.40,471.16 141.83,470.39 141.27,469.61 140.72,468.83 140.18,468.04 139.65,467.25 139.13,466.45 138.62,465.64 138.11,464.82 137.62,464.00 137.14,463.18 136.67,462.34 136.21,461.50 135.76,460.66 135.33,459.81 134.90,458.96 134.48,458.09 134.07,457.23 133.68,456.36 133.29,455.48 132.92,454.60 132.55,453.72 132.20,452.83 131.86,451.94 131.53,451.04 131.21,450.14 130.91,449.23 130.61,448.32 130.32,447.41 130.05,446.49 129.79,445.57 129.54,444.65 129.30,443.72 129.07,442.79 128.86,441.86 128.65,440.93 128.46,439.99 128.28,439.05 128.11,438.11 127.95,437.17 127.81,436.22 127.67,435.27 127.55,434.33 127.44,433.38 127.34,432.42 127.26,431.47 127.18,430.52 127.12,429.56 127.07,428.61 127.03,427.65 127.00,426.70 126.98,425.73 126.98,425.24 126.98,424.31 126.98,423.37">
        <lane id="-23.0.00_0" index="0" disallow="pedestrian tram rail_urban rail rail_electric rail_fast ship" speed="40.00" length="478.49" width="3.50" shape="477.91,669.51 477.35,668.68 476.78,667.84 476.23,667.02 475.67,666.21 475.11,665.40 474.53,664.57 473.96,663.74 473.41,662.94 472.83,662.12 472.25,661.29 471.69,660.50 471.10,659.68 470.52,658.86 469.94,658.06 469.36,657.25 468.77,656.44 468.19,655.64 467.61,654.85 467.00,654.03 466.41,653.22 465.83,652.44 465.22,651.63 464.63,650.83 464.02,650.03 463.42,649.22 462.85,648.47 462.23,647.67 461.61,646.85 461.01,646.07 460.41,645.30 459.79,644.51 459.17,643.71 458.57,642.95 457.94,642.16 457.32,641.37 456.71,640.59 456.09,639.82 455.46,639.04 454.84,638.26 454.21,637.49 453.58,636.71 452.95,635.95 452.31,635.17 451.68,634.40 451.05,633.65 450.42,632.88 449.77,632.11 449.13,631.34 448.48,630.58 447.83,629.80 447.22,629.09 446.58,628.34 445.99,627.63 445.37,626.92 444.72,626.14 444.06,625.37 443.42,624.61 442.80,623.90 442.13,623.14 441.47,622.38 440.81,621.63 440.15,620.88 439.48,620.13 438.83,619.39 438.17,618.67 437.50,617.93 436.82,617.19 436.16,616.45 435.48,615.73 434.80,614.99 434.12,614.26 433.46,613.55 432.77,612.83 432.08,612.10 431.39,611.38 430.69,610.65 430.00,609.94 429.32,609.23 428.62,608.51 427.92,607.81 427.22,607.10 426.53,606.40 425.81,605.68 425.11,604.99 424.40,604.29 423.71,603.60 422.98,602.90 422.26,602.19 421.56,601.52 420.84,600.83 420.11,600.14 419.39,599.45 418.67,598.78 417.94,598.09 417.21,597.41 416.50,596.74 415.76,596.08 415.02,595.40 414.28,594.73 413.53,594.05 412.80,593.38 412.08,592.74 411.32,592.07 410.57,591.40 409.83,590.75 409.10,590.12 408.33,589.46 407.57,588.80 406.81,588.15 406.06,587.50 405.30,586.86 404.53,586.21 403.78,585.57 403.02,584.95 402.26,584.32 401.48,583.68 400.70,583.04 399.93,582.41 399.17,581.79 398.38,581.16 397.62,580.54 396.85,579.94 396.04,579.31 395.27,578.69 394.49,578.09 393.69,577.47 392.91,576.86 392.13,576.26 391.34,575.66 390.54,575.06 389.75,574.47 388.94,573.87 388.13,573.26 387.35,572.68 386.55,572.10 385.75,571.51 384.94,570.93 384.12,570.34 383.30,569.75 382.51,569.18 381.70,568.61 380.88,568.03 380.06,567.46 379.25,566.90 378.45,566.35 377.61,565.78 376.78,565.21 375.97,564.66 375.15,564.11 374.31,563.55 373.47,562.99 372.65,562.44 371.84,561.91 371.00,561.37 370.15,560.82 369.32,560.28 368.47,559.74 367.65,559.21 366.81,558.69 365.94,558.14 365.11,557.62 364.27,557.10 363.42,556.58 362.56,556.06 361.72,555.54 360.88,555.04 360.00,554.51 359.15,554.00 358.33,553.52 357.43,553.00 356.57,552.49 356.47,552.43 355.59,551.93 354.75,551.43 353.93,550.96 353.09,550.47 352.26,549.99 351.42,549.50 350.59,549.02 349.75,548.53 348.92,548.05 348.08,547.56 347.25,547.08 346.41,546.59 345.60,546.12 344.75,545.64 343.89,545.13 343.05,544.64 342.20,544.15 341.32,543.65 340.46,543.17 339.61,542.69 338.73,542.21 337.83,541.71 336.97,541.23 336.12,540.78 335.24,540.31 334.35,539.84 333.47,539.37 332.60,538.92 331.71,538.45 330.83,538.00 329.94,537.55 329.05,537.10 328.17,536.66 327.27,536.22 326.38,535.78 325.49,535.35 324.58,534.91 323.68,534.47 322.79,534.04 321.92,533.63 321.01,533.22 320.09,532.79 319.19,532.38 318.30,531.97 317.39,531.57 316.47,531.16 315.55,530.75 314.63,530.35 313.77,529.97 312.84,529.59 311.90,529.18 311.00,528.81 310.08,528.42 309.15,528.04 308.24,527.67 307.32,527.31 306.38,526.93 305.47,526.57 304.56,526.21 303.61,525.85 302.69,525.49 301.77,525.15 300.82,524.79 299.90,524.45 298.97,524.10 298.02,523.76 297.10,523.43 296.16,523.10 295.21,522.76 294.28,522.44 293.35,522.12 292.41,521.81 291.45,521.49 290.49,521.17 289.55,520.86 288.62,520.56 287.68,520.26 286.74,519.96 285.78,519.67 284.83,519.37 283.89,519.09 282.92,518.80 281.97,518.52 281.00,518.24 280.05,517.95 279.11,517.69 278.13,517.41 277.21,517.16 276.24,516.90 275.28,516.63 274.33,516.39 273.35,516.13 272.39,515.89 271.41,515.64 270.46,515.39 269.51,515.16 268.52,514.92 267.56,514.69 266.60,514.46 265.64,514.24 264.68,514.02 263.69,513.80 262.70,513.58 261.74,513.37 260.80,513.17 259.81,512.97 258.82,512.76 257.85,512.57 256.89,512.37 255.92,512.19 254.93,512.00 253.95,511.81 252.99,511.64 252.02,511.46 251.01,511.29 250.05,511.12 249.08,510.96 248.08,510.79 247.10,510.63 246.10,510.47 245.13,510.32 244.18,510.18 243.18,510.04 242.17,509.89 241.19,509.75 240.22,509.61 239.25,509.49 238.24,509.36 237.26,509.23 236.28,509.11 235.30,509.00 234.29,508.89 233.32,508.77 232.34,508.67 231.33,508.56 230.34,508.46 229.37,508.37 228.36,508.28 227.37,508.18 226.39,508.10 225.38,508.01 224.42,507.94 223.41,507.87 222.41,507.79 221.45,507.72 220.46,507.66 219.45,507.60 218.44,507.54 217.45,507.48 216.47,507.43 215.49,507.38 214.50,507.35 213.49,507.31 212.51,507.27 211.51,507.24 210.50,507.21 209.52,507.18 208.54,507.16 207.49,507.14 207.41,507.13 206.62,507.12 205.75,507.11 204.91,507.09 204.07,507.08 203.23,507.06 202.40,507.05 201.36,507.03 200.32,506.98 199.34,506.93 198.33,506.88 197.29,506.80 196.25,506.72 195.25,506.61 194.25,506.51 193.22,506.38 192.21,506.24 191.21,506.09 190.18,505.93 189.19,505.75 188.19,505.57 187.17,505.36 186.19,505.15 185.17,504.92 184.17,504.67 183.20,504.43 182.22,504.17 181.24,503.90 180.24,503.61 179.27,503.31 178.29,503.00 177.32,502.67 176.36,502.34 175.41,501.99 174.46,501.64 173.48,501.26 172.54,500.87 171.60,500.48 170.67,500.08 169.74,499.66 168.79,499.22 167.88,498.78 166.96,498.33 166.05,497.86 165.15,497.39 164.27,496.90 163.37,496.42 162.48,495.90 161.61,495.39 160.71,494.84 159.85,494.30 159.00,493.75 158.15,493.19 157.30,492.61 156.48,492.04 155.64,491.45 154.79,490.82 153.99,490.21 153.20,489.61 152.38,488.96 151.58,488.30 150.82,487.67 150.04,487.01 149.26,486.33 148.50,485.63 147.75,484.94 147.00,484.23 146.28,483.52 145.57,482.82 144.83,482.07 144.12,481.32 143.45,480.60 142.75,479.85 142.07,479.07 141.40,478.30 140.74,477.51 140.09,476.73 139.46,475.93 138.83,475.14 138.20,474.31 137.59,473.48 136.99,472.65 136.41,471.82 135.83,470.98 135.27,470.14 134.71,469.28 134.17,468.42 133.63,467.55 133.10,466.67 132.58,465.79 132.08,464.88 131.59,464.00 131.10,463.08 130.65,462.18 130.19,461.29 129.75,460.36 129.30,459.43 128.88,458.50 128.47,457.56 128.08,456.63 127.69,455.70 127.30,454.73 126.94,453.78 126.59,452.82 126.24,451.84 125.92,450.87 125.62,449.94 125.30,448.95 125.01,447.94 124.73,446.97 124.46,445.99 124.21,445.01 123.96,444.00 123.74,443.02 123.52,442.03 123.31,441.00 123.12,440.01 122.94,439.02 122.76,437.99 122.62,436.99 122.47,435.99 122.34,434.96 122.22,433.95 122.11,432.91 122.03,431.91 121.94,430.90 121.88,429.86 121.83,428.86 121.78,427.84 121.75,426.84 121.73,425.80 121.73,425.24 121.73,424.31 121.73,405.92" type="driving"/>
        <lane id="-23.0.00_1" index="1" disallow="pedestrian tram rail_urban rail rail_electric rail_fast ship" speed="40.00" length="478.49" width="3.50" shape="480.81,667.55 480.25,666.72 479.68,665.88 479.12,665.05 478.56,664.23 477.99,663.41 477.41,662.58 476.84,661.75 476.27,660.93 475.69,660.11 475.11,659.28 474.54,658.47 473.95,657.65 473.37,656.83 472.78,656.01 472.19,655.20 471.60,654.39 471.02,653.57 470.42,652.77 469.82,651.96 469.23,651.15 468.64,650.35 468.03,649.54 467.43,648.73 466.82,647.93 466.22,647.12 465.62,646.34 465.00,645.54 464.39,644.73 463.78,643.94 463.17,643.15 462.55,642.36 461.93,641.56 461.32,640.78 460.69,639.99 460.07,639.20 459.44,638.41 458.82,637.63 458.19,636.85 457.56,636.06 456.92,635.28 456.29,634.50 455.66,633.73 455.02,632.95 454.38,632.17 453.74,631.41 453.10,630.63 452.45,629.86 451.81,629.09 451.16,628.33 450.50,627.53 449.88,626.82 449.26,626.09 448.66,625.36 448.04,624.65 447.39,623.87 446.73,623.10 446.08,622.34 445.43,621.59 444.76,620.83 444.10,620.07 443.44,619.32 442.77,618.56 442.10,617.81 441.44,617.06 440.76,616.32 440.09,615.57 439.41,614.83 438.73,614.08 438.05,613.35 437.37,612.61 436.68,611.87 436.00,611.14 435.30,610.42 434.61,609.69 433.92,608.96 433.22,608.23 432.52,607.51 431.83,606.79 431.12,606.06 430.41,605.35 429.71,604.63 429.00,603.93 428.28,603.21 427.58,602.50 426.86,601.80 426.15,601.09 425.42,600.39 424.70,599.68 423.98,598.99 423.25,598.30 422.52,597.61 421.80,596.91 421.06,596.23 420.33,595.54 419.60,594.85 418.87,594.17 418.12,593.49 417.38,592.81 416.63,592.14 415.88,591.46 415.14,590.78 414.40,590.12 413.64,589.45 412.89,588.78 412.14,588.12 411.39,587.47 410.62,586.81 409.86,586.15 409.09,585.49 408.33,584.83 407.56,584.19 406.79,583.54 406.03,582.89 405.25,582.25 404.48,581.61 403.70,580.97 402.92,580.33 402.14,579.70 401.36,579.06 400.57,578.43 399.80,577.81 399.01,577.19 398.21,576.56 397.43,575.94 396.64,575.32 395.84,574.70 395.04,574.09 394.25,573.48 393.45,572.87 392.65,572.27 391.84,571.66 391.03,571.06 390.22,570.45 389.42,569.86 388.62,569.27 387.80,568.68 386.99,568.09 386.17,567.50 385.35,566.91 384.54,566.33 383.71,565.75 382.89,565.17 382.07,564.59 381.24,564.02 380.42,563.46 379.58,562.89 378.75,562.32 377.92,561.75 377.09,561.20 376.25,560.64 375.41,560.08 374.58,559.52 373.75,558.98 372.90,558.43 372.05,557.88 371.21,557.33 370.36,556.79 369.52,556.25 368.66,555.72 367.81,555.18 366.96,554.65 366.10,554.12 365.25,553.59 364.39,553.07 363.53,552.55 362.67,552.03 361.80,551.51 360.94,550.99 360.09,550.49 359.20,549.98 358.34,549.47 358.20,549.39 357.35,548.90 356.52,548.41 355.69,547.93 354.85,547.44 354.02,546.96 353.18,546.47 352.35,545.99 351.51,545.50 350.68,545.02 349.84,544.53 349.01,544.05 348.17,543.56 347.35,543.09 346.50,542.61 345.66,542.11 344.80,541.61 343.93,541.11 343.05,540.61 342.17,540.12 341.30,539.63 340.42,539.14 339.52,538.65 338.65,538.16 337.77,537.69 336.88,537.22 335.99,536.75 335.10,536.27 334.21,535.81 333.32,535.34 332.42,534.89 331.53,534.43 330.62,533.97 329.73,533.53 328.82,533.08 327.92,532.63 327.02,532.20 326.11,531.76 325.20,531.32 324.29,530.88 323.39,530.46 322.48,530.04 321.56,529.61 320.64,529.19 319.73,528.78 318.81,528.37 317.89,527.96 316.96,527.55 316.04,527.14 315.14,526.75 314.20,526.36 313.27,525.96 312.35,525.58 311.41,525.19 310.48,524.81 309.55,524.42 308.62,524.06 307.68,523.68 306.75,523.31 305.82,522.94 304.87,522.58 303.94,522.22 303.00,521.87 302.05,521.51 301.11,521.16 300.16,520.81 299.21,520.47 298.27,520.13 297.32,519.80 296.37,519.46 295.42,519.13 294.47,518.81 293.52,518.49 292.56,518.17 291.60,517.85 290.64,517.53 289.69,517.23 288.73,516.92 287.78,516.62 286.81,516.32 285.85,516.02 284.89,515.74 283.92,515.45 282.96,515.16 281.99,514.88 281.02,514.59 280.06,514.32 279.08,514.04 278.13,513.78 277.15,513.52 276.18,513.25 275.21,513.00 274.23,512.74 273.26,512.50 272.28,512.25 271.31,512.00 270.34,511.76 269.35,511.52 268.37,511.28 267.39,511.05 266.42,510.83 265.44,510.61 264.45,510.39 263.46,510.17 262.48,509.95 261.51,509.74 260.52,509.54 259.53,509.33 258.54,509.14 257.56,508.94 256.57,508.75 255.58,508.56 254.59,508.37 253.61,508.19 252.62,508.01 251.62,507.84 250.64,507.67 249.65,507.51 248.65,507.34 247.65,507.18 246.65,507.02 245.66,506.86 244.68,506.71 243.68,506.57 242.67,506.42 241.68,506.28 240.69,506.14 239.70,506.02 238.69,505.89 237.69,505.76 236.69,505.64 235.70,505.52 234.69,505.41 233.70,505.29 232.70,505.19 231.69,505.08 230.69,504.98 229.70,504.88 228.69,504.79 227.68,504.69 226.68,504.61 225.67,504.52 224.68,504.45 223.67,504.38 222.67,504.30 221.68,504.23 220.67,504.17 219.66,504.11 218.65,504.05 217.64,503.99 216.64,503.94 215.64,503.89 214.64,503.85 213.63,503.81 212.63,503.77 211.62,503.74 210.61,503.71 209.61,503.68 208.61,503.66 207.58,503.64 207.48,503.63 206.66,503.62 205.81,503.61 204.97,503.59 204.13,503.58 203.29,503.56 202.46,503.55 201.47,503.53 200.49,503.49 199.52,503.44 198.55,503.39 197.56,503.31 196.58,503.23 195.62,503.13 194.65,503.03 193.67,502.91 192.70,502.77 191.74,502.63 190.77,502.48 189.81,502.30 188.85,502.13 187.88,501.93 186.94,501.73 185.97,501.51 185.02,501.28 184.08,501.04 183.13,500.79 182.19,500.53 181.25,500.26 180.32,499.97 179.38,499.67 178.45,499.36 177.53,499.04 176.62,498.70 175.70,498.37 174.78,498.01 173.87,497.64 172.97,497.26 172.08,496.87 171.19,496.47 170.29,496.06 169.41,495.63 168.53,495.20 167.66,494.75 166.80,494.30 165.95,493.83 165.09,493.37 164.24,492.87 163.40,492.38 162.56,491.87 161.73,491.35 160.91,490.82 160.10,490.28 159.29,489.73 158.49,489.17 157.69,488.61 156.89,488.02 156.12,487.43 155.35,486.84 154.57,486.23 153.81,485.61 153.07,484.99 152.33,484.36 151.59,483.71 150.86,483.05 150.14,482.39 149.43,481.71 148.73,481.03 148.04,480.35 147.35,479.64 146.67,478.93 146.02,478.22 145.35,477.50 144.70,476.76 144.06,476.03 143.43,475.28 142.81,474.52 142.20,473.76 141.60,472.99 141.00,472.21 140.42,471.42 139.84,470.62 139.28,469.83 138.73,469.02 138.19,468.21 137.66,467.39 137.14,466.57 136.62,465.73 136.11,464.89 135.62,464.05 135.14,463.19 134.67,462.33 134.21,461.47 133.77,460.60 133.33,459.74 132.90,458.85 132.48,457.96 132.08,457.07 131.68,456.17 131.31,455.28 130.93,454.38 130.57,453.46 130.22,452.55 129.88,451.63 129.55,450.71 129.25,449.78 128.95,448.86 128.65,447.92 128.37,446.97 128.10,446.04 127.85,445.10 127.60,444.15 127.37,443.19 127.15,442.25 126.94,441.30 126.74,440.33 126.56,439.37 126.39,438.41 126.22,437.44 126.08,436.48 125.94,435.51 125.81,434.54 125.70,433.57 125.60,432.58 125.52,431.62 125.43,430.65 125.37,429.66 125.32,428.69 125.28,427.71 125.25,426.75 125.23,425.75 125.23,425.24 125.23,424.31 125.23,405.92" type="driving"/>
    </edge>
    <edge id="35.0.00" from="609" to="J0" priority="1" type="shoulder|driving|driving|driving|driving|shoulder|shoulder" shape="897.35,601.32 897.91,655.04 897.91,655.55 897.92,656.53 897.91,657.51 897.90,658.49 897.89,659.46 897.86,660.44 897.83,661.41 897.80,662.39 897.75,663.36 897.70,664.34 897.65,665.31 897.58,666.29 897.51,667.26 897.44,668.24 897.36,669.21 897.27,670.18 897.17,671.15 897.07,672.12 896.96,673.09 896.84,674.06 896.72,675.03 896.59,676.00 896.46,676.96 896.31,677.93 896.17,678.90 896.01,679.86 895.85,680.82 895.68,681.78 895.51,682.74 895.32,683.70 895.14,684.66 894.94,685.62 894.74,686.57 894.53,687.53 894.32,688.48 894.10,689.43 893.87,690.38 893.64,691.33 893.40,692.27 893.16,693.22 892.90,694.16 892.64,695.10 892.38,696.04 892.11,696.98 891.83,697.92 891.55,698.85 891.25,699.78 890.96,700.71 890.65,701.64 890.35,702.57 890.03,703.49 889.71,704.41 889.38,705.33 889.04,706.25 888.70,707.16 888.36,708.08 888.00,708.99 887.64,709.89 887.28,710.80 886.91,711.70 886.53,712.60 886.15,713.50 885.76,714.39 885.36,715.29 884.96,716.18 884.55,717.06 884.13,717.95 883.71,718.83 883.29,719.71 882.86,720.58 882.42,721.45 881.97,722.32 881.52,723.19 881.07,724.05 880.61,724.91 880.14,725.77 879.67,726.62 879.19,727.48 878.70,728.32 878.21,729.17 877.72,730.01 877.21,730.84 876.71,731.68 876.19,732.51 875.67,733.34 875.15,734.16 874.62,734.98 874.08,735.80 873.54,736.61 873.00,737.42 872.44,738.22 871.89,739.02 871.32,739.82 870.76,740.61 870.18,741.40 869.60,742.19 869.02,742.97 868.43,743.75 867.83,744.52 867.23,745.29 866.63,746.06 866.02,746.82 865.40,747.58 864.78,748.33 864.15,749.08 863.52,749.82 862.89,750.57 862.25,751.30 861.60,752.03 860.95,752.76 860.29,753.48 859.63,754.20 858.97,754.92 858.29,755.63 857.62,756.33 856.94,757.03 856.25,757.73 855.56,758.42 854.87,759.10 854.17,759.78 853.47,760.46 852.76,761.13 852.05,761.80 851.33,762.46 850.61,763.12 849.88,763.77 849.15,764.42 848.41,765.06 847.68,765.70 846.93,766.33 846.18,766.96 845.43,767.58 844.68,768.20 843.91,768.81 843.77,768.93">
        <lane id="35.0.00_0" index="0" disallow="pedestrian tram rail_urban rail rail_electric rail_fast ship" speed="40.00" length="195.86" width="3.50" shape="913.02,593.68 913.66,654.88 913.66,655.44 913.67,656.53 913.66,657.67 913.65,658.65 913.64,659.78 913.60,660.92 913.57,661.89 913.54,663.04 913.48,664.17 913.43,665.15 913.37,666.28 913.29,667.42 913.22,668.39 913.14,669.45 913.05,670.58 912.95,671.72 912.84,672.77 912.73,673.81 912.60,674.94 912.47,675.99 912.34,677.04 912.20,678.10 912.05,679.22 911.89,680.26 911.73,681.32 911.55,682.45 911.37,683.49 911.19,684.53 910.99,685.64 910.79,686.68 910.59,687.72 910.36,688.85 910.14,689.88 909.91,690.91 909.68,691.96 909.43,693.06 909.18,694.09 908.92,695.13 908.67,696.15 908.39,697.25 908.08,698.36 907.82,699.30 907.54,700.31 907.23,701.40 906.92,702.44 906.59,703.54 906.26,704.54 905.95,705.55 905.62,706.55 905.28,707.57 904.91,708.66 904.56,709.66 904.18,710.72 903.80,711.74 903.46,712.65 903.07,713.71 902.63,714.81 902.27,715.71 901.89,716.69 901.45,717.76 901.04,718.73 900.62,719.72 900.17,720.75 899.74,721.72 899.28,722.73 898.81,723.75 898.36,724.70 897.92,725.61 897.46,726.59 896.95,727.62 896.44,728.62 895.96,729.56 895.49,730.46 894.99,731.42 894.46,732.40 893.94,733.36 893.44,734.27 892.87,735.29 892.32,736.22 891.83,737.07 891.23,738.10 890.69,738.99 890.15,739.89 889.54,740.87 888.99,741.74 888.41,742.65 887.81,743.59 887.21,744.50 886.64,745.35 886.00,746.31 885.38,747.20 884.79,748.05 884.16,748.94 883.53,749.83 882.88,750.72 882.27,751.55 881.62,752.42 880.92,753.34 880.25,754.20 879.65,754.97 878.98,755.83 878.26,756.73 877.57,757.58 876.88,758.41 876.18,759.25 875.55,759.99 874.84,760.83 874.05,761.73 873.36,762.50 872.64,763.32 871.90,764.12 871.24,764.84 870.46,765.69 869.67,766.52 868.96,767.26 868.20,768.05 867.43,768.83 866.66,769.60 865.88,770.36 865.14,771.08 864.36,771.84 863.57,772.58 862.78,773.33 861.97,774.07 861.17,774.81 860.35,775.53 859.54,776.26 858.75,776.94 857.94,777.65 857.06,778.39 856.69,778.70" type="driving"/>